* NGSPICE file created from noc_router.ext - technology: scmos

* Black-box entry subcircuit for FILL abstract view
.subckt FILL gnd vdd
.ends

* Black-box entry subcircuit for NAND2X1 abstract view
.subckt NAND2X1 A B gnd Y vdd
.ends

* Black-box entry subcircuit for AOI22X1 abstract view
.subckt AOI22X1 A B C D gnd Y vdd
.ends

* Black-box entry subcircuit for OAI21X1 abstract view
.subckt OAI21X1 A B C gnd Y vdd
.ends

* Black-box entry subcircuit for AND2X2 abstract view
.subckt AND2X2 A B gnd Y vdd
.ends

* Black-box entry subcircuit for DFFSR abstract view
.subckt DFFSR Q CLK R S D gnd vdd
.ends

* Black-box entry subcircuit for DFFPOSX1 abstract view
.subckt DFFPOSX1 Q CLK D gnd vdd
.ends

* Black-box entry subcircuit for INVX1 abstract view
.subckt INVX1 A gnd Y vdd
.ends

* Black-box entry subcircuit for BUFX4 abstract view
.subckt BUFX4 A gnd Y vdd
.ends

* Black-box entry subcircuit for AOI21X1 abstract view
.subckt AOI21X1 A B C gnd Y vdd
.ends

* Black-box entry subcircuit for NAND3X1 abstract view
.subckt NAND3X1 A B C gnd Y vdd
.ends

* Black-box entry subcircuit for OAI22X1 abstract view
.subckt OAI22X1 A B C D gnd Y vdd
.ends

* Black-box entry subcircuit for INVX2 abstract view
.subckt INVX2 A gnd Y vdd
.ends

* Black-box entry subcircuit for BUFX2 abstract view
.subckt BUFX2 A gnd Y vdd
.ends

* Black-box entry subcircuit for OR2X2 abstract view
.subckt OR2X2 A B gnd Y vdd
.ends

* Black-box entry subcircuit for XNOR2X1 abstract view
.subckt XNOR2X1 A B gnd Y vdd
.ends

* Black-box entry subcircuit for INVX8 abstract view
.subckt INVX8 A gnd Y vdd
.ends

* Black-box entry subcircuit for NOR3X1 abstract view
.subckt NOR3X1 A B C gnd Y vdd
.ends

* Black-box entry subcircuit for CLKBUF1 abstract view
.subckt CLKBUF1 A gnd Y vdd
.ends

* Black-box entry subcircuit for MUX2X1 abstract view
.subckt MUX2X1 A B S gnd Y vdd
.ends

* Black-box entry subcircuit for XOR2X1 abstract view
.subckt XOR2X1 A B gnd Y vdd
.ends

* Black-box entry subcircuit for INVX4 abstract view
.subckt INVX4 A gnd Y vdd
.ends

* Black-box entry subcircuit for NOR2X1 abstract view
.subckt NOR2X1 A B gnd Y vdd
.ends

.subckt noc_router vdd gnd clk rst_n n_in_valid n_in_data[0] n_in_data[1] n_in_data[2]
+ n_in_data[3] n_in_data[4] n_in_data[5] n_in_data[6] n_in_data[7] n_in_data[8] n_in_data[9]
+ n_in_data[10] n_in_data[11] n_in_data[12] n_in_data[13] n_in_data[14] n_in_data[15]
+ n_in_data[16] n_in_data[17] n_in_data[18] n_in_data[19] n_in_data[20] n_in_data[21]
+ n_in_data[22] n_in_data[23] n_out_ready s_in_valid s_in_data[0] s_in_data[1] s_in_data[2]
+ s_in_data[3] s_in_data[4] s_in_data[5] s_in_data[6] s_in_data[7] s_in_data[8] s_in_data[9]
+ s_in_data[10] s_in_data[11] s_in_data[12] s_in_data[13] s_in_data[14] s_in_data[15]
+ s_in_data[16] s_in_data[17] s_in_data[18] s_in_data[19] s_in_data[20] s_in_data[21]
+ s_in_data[22] s_in_data[23] s_out_ready e_in_valid e_in_data[0] e_in_data[1] e_in_data[2]
+ e_in_data[3] e_in_data[4] e_in_data[5] e_in_data[6] e_in_data[7] e_in_data[8] e_in_data[9]
+ e_in_data[10] e_in_data[11] e_in_data[12] e_in_data[13] e_in_data[14] e_in_data[15]
+ e_in_data[16] e_in_data[17] e_in_data[18] e_in_data[19] e_in_data[20] e_in_data[21]
+ e_in_data[22] e_in_data[23] e_out_ready w_in_valid w_in_data[0] w_in_data[1] w_in_data[2]
+ w_in_data[3] w_in_data[4] w_in_data[5] w_in_data[6] w_in_data[7] w_in_data[8] w_in_data[9]
+ w_in_data[10] w_in_data[11] w_in_data[12] w_in_data[13] w_in_data[14] w_in_data[15]
+ w_in_data[16] w_in_data[17] w_in_data[18] w_in_data[19] w_in_data[20] w_in_data[21]
+ w_in_data[22] w_in_data[23] w_out_ready l_in_valid l_in_data[0] l_in_data[1] l_in_data[2]
+ l_in_data[3] l_in_data[4] l_in_data[5] l_in_data[6] l_in_data[7] l_in_data[8] l_in_data[9]
+ l_in_data[10] l_in_data[11] l_in_data[12] l_in_data[13] l_in_data[14] l_in_data[15]
+ l_in_data[16] l_in_data[17] l_in_data[18] l_in_data[19] l_in_data[20] l_in_data[21]
+ l_in_data[22] l_in_data[23] l_out_ready n_in_ready n_out_valid n_out_data[0] n_out_data[1]
+ n_out_data[2] n_out_data[3] n_out_data[4] n_out_data[5] n_out_data[6] n_out_data[7]
+ n_out_data[8] n_out_data[9] n_out_data[10] n_out_data[11] n_out_data[12] n_out_data[13]
+ n_out_data[14] n_out_data[15] n_out_data[16] n_out_data[17] n_out_data[18] n_out_data[19]
+ n_out_data[20] n_out_data[21] n_out_data[22] n_out_data[23] s_in_ready s_out_valid
+ s_out_data[0] s_out_data[1] s_out_data[2] s_out_data[3] s_out_data[4] s_out_data[5]
+ s_out_data[6] s_out_data[7] s_out_data[8] s_out_data[9] s_out_data[10] s_out_data[11]
+ s_out_data[12] s_out_data[13] s_out_data[14] s_out_data[15] s_out_data[16] s_out_data[17]
+ s_out_data[18] s_out_data[19] s_out_data[20] s_out_data[21] s_out_data[22] s_out_data[23]
+ e_in_ready e_out_valid e_out_data[0] e_out_data[1] e_out_data[2] e_out_data[3] e_out_data[4]
+ e_out_data[5] e_out_data[6] e_out_data[7] e_out_data[8] e_out_data[9] e_out_data[10]
+ e_out_data[11] e_out_data[12] e_out_data[13] e_out_data[14] e_out_data[15] e_out_data[16]
+ e_out_data[17] e_out_data[18] e_out_data[19] e_out_data[20] e_out_data[21] e_out_data[22]
+ e_out_data[23] w_in_ready w_out_valid w_out_data[0] w_out_data[1] w_out_data[2]
+ w_out_data[3] w_out_data[4] w_out_data[5] w_out_data[6] w_out_data[7] w_out_data[8]
+ w_out_data[9] w_out_data[10] w_out_data[11] w_out_data[12] w_out_data[13] w_out_data[14]
+ w_out_data[15] w_out_data[16] w_out_data[17] w_out_data[18] w_out_data[19] w_out_data[20]
+ w_out_data[21] w_out_data[22] w_out_data[23] l_in_ready l_out_valid l_out_data[0]
+ l_out_data[1] l_out_data[2] l_out_data[3] l_out_data[4] l_out_data[5] l_out_data[6]
+ l_out_data[7] l_out_data[8] l_out_data[9] l_out_data[10] l_out_data[11] l_out_data[12]
+ l_out_data[13] l_out_data[14] l_out_data[15] l_out_data[16] l_out_data[17] l_out_data[18]
+ l_out_data[19] l_out_data[20] l_out_data[21] l_out_data[22] l_out_data[23]
XFILL_17_DFFPOSX1_294 gnd vdd FILL
XFILL_9_6_0 gnd vdd FILL
XFILL_16_DFFSR_25 gnd vdd FILL
XFILL_16_DFFSR_36 gnd vdd FILL
XFILL_16_DFFSR_47 gnd vdd FILL
XFILL_16_DFFSR_58 gnd vdd FILL
XFILL_3_OAI21X1_400 gnd vdd FILL
XFILL_5_DFFPOSX1_9 gnd vdd FILL
XFILL_3_OAI21X1_411 gnd vdd FILL
XFILL_2_OAI21X1_240 gnd vdd FILL
XFILL_3_OAI21X1_422 gnd vdd FILL
XFILL_2_OAI21X1_251 gnd vdd FILL
XFILL_16_DFFPOSX1_17 gnd vdd FILL
XFILL_4_OAI21X1_604 gnd vdd FILL
XFILL_3_OAI21X1_433 gnd vdd FILL
XFILL_4_OAI21X1_615 gnd vdd FILL
XFILL_3_OAI21X1_444 gnd vdd FILL
XFILL_2_OAI21X1_262 gnd vdd FILL
XFILL_16_DFFPOSX1_28 gnd vdd FILL
XFILL_4_OAI21X1_626 gnd vdd FILL
XNAND2X1_580 NAND3X1_302/Y NAND2X1_580/B gnd NAND2X1_580/Y vdd NAND2X1
XFILL_16_DFFPOSX1_39 gnd vdd FILL
XFILL_2_OAI21X1_273 gnd vdd FILL
XFILL_13_CLKBUF1_51 gnd vdd FILL
XFILL_3_OAI21X1_455 gnd vdd FILL
XFILL_48_1_2 gnd vdd FILL
XFILL_2_OAI21X1_284 gnd vdd FILL
XFILL_5_OAI21X1_808 gnd vdd FILL
XFILL_3_OAI21X1_466 gnd vdd FILL
XNAND2X1_591 BUFX4_64/Y NAND2X1_591/B gnd NAND2X1_591/Y vdd NAND2X1
XFILL_4_OAI21X1_637 gnd vdd FILL
XFILL_2_OAI21X1_295 gnd vdd FILL
XFILL_4_OAI21X1_648 gnd vdd FILL
XFILL_3_OAI21X1_477 gnd vdd FILL
XFILL_13_CLKBUF1_73 gnd vdd FILL
XFILL_5_OAI21X1_819 gnd vdd FILL
XFILL_3_OAI21X1_488 gnd vdd FILL
XFILL_4_OAI21X1_659 gnd vdd FILL
XFILL_11_DFFPOSX1_203 gnd vdd FILL
XFILL_3_OAI21X1_499 gnd vdd FILL
XFILL_0_NAND2X1_309 gnd vdd FILL
XFILL_11_DFFPOSX1_214 gnd vdd FILL
XFILL_11_DFFPOSX1_225 gnd vdd FILL
XFILL_11_DFFPOSX1_236 gnd vdd FILL
XFILL_11_DFFPOSX1_247 gnd vdd FILL
XFILL_17_5_0 gnd vdd FILL
XFILL_11_DFFPOSX1_258 gnd vdd FILL
XFILL_11_DFFPOSX1_269 gnd vdd FILL
XFILL_25_DFFSR_12 gnd vdd FILL
XFILL_25_DFFSR_23 gnd vdd FILL
XFILL_25_DFFSR_34 gnd vdd FILL
XFILL_60_8_1 gnd vdd FILL
XFILL_25_DFFSR_45 gnd vdd FILL
XFILL_25_DFFSR_56 gnd vdd FILL
XFILL_5_DFFPOSX1_307 gnd vdd FILL
XFILL_14_DFFPOSX1_707 gnd vdd FILL
XFILL_5_DFFPOSX1_318 gnd vdd FILL
XFILL_31_0_2 gnd vdd FILL
XFILL_14_DFFPOSX1_718 gnd vdd FILL
XFILL_4_NAND2X1_610 gnd vdd FILL
XFILL_5_DFFPOSX1_329 gnd vdd FILL
XFILL_3_NAND2X1_450 gnd vdd FILL
XFILL_3_NAND2X1_461 gnd vdd FILL
XFILL_2_NAND2X1_290 gnd vdd FILL
XFILL_4_NAND2X1_643 gnd vdd FILL
XFILL_3_NAND2X1_472 gnd vdd FILL
XFILL_3_NAND2X1_483 gnd vdd FILL
XFILL_3_NAND2X1_494 gnd vdd FILL
XFILL_4_NAND2X1_665 gnd vdd FILL
XFILL_4_NAND2X1_676 gnd vdd FILL
XFILL_0_BUFX4_610 gnd vdd FILL
XFILL_0_BUFX4_621 gnd vdd FILL
XFILL_4_NAND2X1_698 gnd vdd FILL
XFILL_0_BUFX4_632 gnd vdd FILL
XFILL_0_BUFX4_643 gnd vdd FILL
XFILL_22_11_1 gnd vdd FILL
XFILL_0_BUFX4_654 gnd vdd FILL
XFILL_0_BUFX4_665 gnd vdd FILL
XFILL_8_DFFSR_13 gnd vdd FILL
XFILL_3_OAI21X1_1190 gnd vdd FILL
XFILL_11_DFFPOSX1_13 gnd vdd FILL
XFILL_0_BUFX4_676 gnd vdd FILL
XFILL_8_DFFSR_24 gnd vdd FILL
XFILL_0_BUFX4_687 gnd vdd FILL
XFILL_19_DFFSR_9 gnd vdd FILL
XFILL_11_DFFPOSX1_24 gnd vdd FILL
XFILL_8_DFFSR_35 gnd vdd FILL
XFILL_8_DFFSR_46 gnd vdd FILL
XFILL_11_DFFPOSX1_35 gnd vdd FILL
XFILL_4_BUFX4_620 gnd vdd FILL
XFILL_8_DFFSR_57 gnd vdd FILL
XFILL_11_DFFPOSX1_46 gnd vdd FILL
XFILL_0_OAI21X1_804 gnd vdd FILL
XFILL_4_BUFX4_631 gnd vdd FILL
XFILL_11_DFFPOSX1_57 gnd vdd FILL
XFILL_1_AOI21X1_104 gnd vdd FILL
XFILL_11_DFFPOSX1_68 gnd vdd FILL
XFILL_0_OAI21X1_815 gnd vdd FILL
XFILL_4_BUFX4_642 gnd vdd FILL
XFILL_0_OAI21X1_826 gnd vdd FILL
XFILL_1_AOI21X1_115 gnd vdd FILL
XFILL_4_BUFX4_653 gnd vdd FILL
XFILL_0_OAI21X1_837 gnd vdd FILL
XFILL_1_AOI21X1_126 gnd vdd FILL
XFILL_11_DFFPOSX1_79 gnd vdd FILL
XFILL_4_BUFX4_664 gnd vdd FILL
XFILL_0_OAI21X1_848 gnd vdd FILL
XFILL_2_AOI21X1_308 gnd vdd FILL
XFILL_1_AOI21X1_137 gnd vdd FILL
XFILL_2_AOI21X1_319 gnd vdd FILL
XFILL_4_BUFX4_675 gnd vdd FILL
XFILL_0_OAI21X1_859 gnd vdd FILL
XFILL_1_AOI21X1_148 gnd vdd FILL
XFILL_4_BUFX4_686 gnd vdd FILL
XFILL_1_AOI21X1_159 gnd vdd FILL
XFILL_68_9_1 gnd vdd FILL
XFILL_13_DFFPOSX1_308 gnd vdd FILL
XFILL_13_DFFPOSX1_319 gnd vdd FILL
XFILL_67_4_0 gnd vdd FILL
XFILL_39_1_2 gnd vdd FILL
XFILL_2_DFFPOSX1_18 gnd vdd FILL
XFILL_2_DFFPOSX1_29 gnd vdd FILL
XFILL_0_NAND2X1_810 gnd vdd FILL
XFILL_0_NAND2X1_821 gnd vdd FILL
XFILL_0_NAND2X1_832 gnd vdd FILL
XFILL_0_NAND2X1_843 gnd vdd FILL
XFILL_11_DFFPOSX1_1 gnd vdd FILL
XFILL_0_NAND2X1_854 gnd vdd FILL
XFILL_0_NAND2X1_865 gnd vdd FILL
XFILL_2_DFFPOSX1_370 gnd vdd FILL
XFILL_0_NAND2X1_876 gnd vdd FILL
XFILL_2_DFFPOSX1_381 gnd vdd FILL
XFILL_0_NAND2X1_887 gnd vdd FILL
XFILL_2_DFFPOSX1_392 gnd vdd FILL
XFILL_51_8_1 gnd vdd FILL
XFILL_0_NAND2X1_898 gnd vdd FILL
XFILL_50_3_0 gnd vdd FILL
XFILL_5_OAI21X1_1240 gnd vdd FILL
XFILL_22_0_2 gnd vdd FILL
XFILL_5_OAI21X1_1251 gnd vdd FILL
XFILL_27_10_1 gnd vdd FILL
XFILL_5_OAI21X1_1262 gnd vdd FILL
XFILL_12_DFFSR_40 gnd vdd FILL
XFILL_5_OAI21X1_1273 gnd vdd FILL
XFILL_12_DFFSR_51 gnd vdd FILL
XFILL_5_OAI21X1_1284 gnd vdd FILL
XFILL_12_DFFSR_62 gnd vdd FILL
XFILL_5_OAI21X1_1295 gnd vdd FILL
XFILL_1_XNOR2X1_20 gnd vdd FILL
XFILL_1_XNOR2X1_31 gnd vdd FILL
XFILL_1_NAND3X1_108 gnd vdd FILL
XFILL_1_NAND3X1_119 gnd vdd FILL
XFILL_2_INVX1_210 gnd vdd FILL
XFILL_1_DFFSR_1 gnd vdd FILL
XFILL_2_INVX1_221 gnd vdd FILL
XFILL_2_INVX1_232 gnd vdd FILL
XFILL_10_DFFPOSX1_360 gnd vdd FILL
XFILL_2_INVX1_243 gnd vdd FILL
XFILL_2_INVX1_254 gnd vdd FILL
XFILL_10_DFFPOSX1_371 gnd vdd FILL
XAOI22X1_204 NOR2X1_82/A INVX2_106/Y AOI21X1_20/Y NAND3X1_37/Y gnd OAI21X1_797/B vdd
+ AOI22X1
XFILL_2_INVX1_265 gnd vdd FILL
XFILL_10_DFFPOSX1_382 gnd vdd FILL
XFILL_10_DFFPOSX1_393 gnd vdd FILL
XFILL_2_INVX1_276 gnd vdd FILL
XAOI22X1_215 INVX2_122/Y BUFX4_530/Y AOI21X1_42/Y NAND3X1_51/Y gnd OAI21X1_808/B vdd
+ AOI22X1
XFILL_21_DFFSR_60 gnd vdd FILL
XAOI22X1_226 INVX2_144/Y BUFX4_531/Y AOI21X1_64/Y NAND3X1_62/Y gnd OAI21X1_819/B vdd
+ AOI22X1
XFILL_59_9_1 gnd vdd FILL
XAOI22X1_237 INVX2_120/Y NOR2X1_82/A AOI21X1_86/Y NAND3X1_73/Y gnd OAI21X1_830/B vdd
+ AOI22X1
XAOI22X1_248 INVX2_142/Y INVX1_264/A AOI22X1_248/C NAND3X1_84/Y gnd OAI21X1_841/B
+ vdd AOI22X1
XFILL_5_NAND3X1_420 gnd vdd FILL
XFILL_4_NAND3X1_260 gnd vdd FILL
XFILL_5_NAND3X1_431 gnd vdd FILL
XAOI22X1_259 INVX2_118/Y BUFX4_568/Y AOI22X1_259/C NAND3X1_95/Y gnd OAI21X1_852/B
+ vdd AOI22X1
XFILL_4_DFFPOSX1_420 gnd vdd FILL
XFILL_5_NAND3X1_442 gnd vdd FILL
XFILL_58_4_0 gnd vdd FILL
XFILL_6_NOR3X1_4 gnd vdd FILL
XFILL_4_NAND3X1_271 gnd vdd FILL
XFILL_5_NAND3X1_453 gnd vdd FILL
XFILL_4_DFFPOSX1_431 gnd vdd FILL
XFILL_4_NAND3X1_282 gnd vdd FILL
XFILL_5_1_2 gnd vdd FILL
XFILL_5_OAI22X1_19 gnd vdd FILL
XFILL_4_DFFPOSX1_442 gnd vdd FILL
XFILL_5_NAND3X1_464 gnd vdd FILL
XFILL_4_NAND3X1_293 gnd vdd FILL
XFILL_4_DFFPOSX1_453 gnd vdd FILL
XFILL_5_NAND3X1_475 gnd vdd FILL
XFILL_5_NAND3X1_486 gnd vdd FILL
XFILL_4_DFFPOSX1_464 gnd vdd FILL
XFILL_5_NAND3X1_497 gnd vdd FILL
XFILL_0_INVX2_109 gnd vdd FILL
XFILL_4_DFFPOSX1_475 gnd vdd FILL
XFILL_4_DFFPOSX1_486 gnd vdd FILL
XFILL_4_DFFPOSX1_497 gnd vdd FILL
XFILL_2_11_1 gnd vdd FILL
XFILL_2_BUFX4_530 gnd vdd FILL
XFILL_2_BUFX4_541 gnd vdd FILL
XFILL_2_BUFX4_552 gnd vdd FILL
XFILL_4_NAND3X1_40 gnd vdd FILL
XFILL_4_NAND3X1_51 gnd vdd FILL
XFILL_2_BUFX4_563 gnd vdd FILL
XFILL_4_NAND3X1_62 gnd vdd FILL
XFILL_2_BUFX4_574 gnd vdd FILL
XFILL_4_NAND3X1_73 gnd vdd FILL
XFILL_4_NAND3X1_84 gnd vdd FILL
XFILL_2_BUFX4_585 gnd vdd FILL
XFILL_2_BUFX4_596 gnd vdd FILL
XFILL_4_DFFSR_50 gnd vdd FILL
XFILL_42_8_1 gnd vdd FILL
XFILL_4_DFFSR_61 gnd vdd FILL
XFILL_4_NAND3X1_95 gnd vdd FILL
XFILL_3_AOI22X1_107 gnd vdd FILL
XFILL_3_AOI22X1_118 gnd vdd FILL
XFILL_41_3_0 gnd vdd FILL
XFILL_3_AOI22X1_129 gnd vdd FILL
XFILL_13_0_2 gnd vdd FILL
XFILL_3_INVX8_9 gnd vdd FILL
XFILL_45_11_1 gnd vdd FILL
XFILL_12_DFFPOSX1_410 gnd vdd FILL
XFILL_12_DFFPOSX1_421 gnd vdd FILL
XOAI21X1_360 BUFX4_251/Y BUFX4_662/Y AOI22X1_88/B gnd OAI21X1_360/Y vdd OAI21X1
XFILL_1_OAI21X1_1309 gnd vdd FILL
XFILL_12_DFFPOSX1_432 gnd vdd FILL
XOAI21X1_371 INVX2_41/Y BUFX4_492/Y OAI21X1_372/Y gnd OAI21X1_371/Y vdd OAI21X1
XFILL_12_DFFPOSX1_443 gnd vdd FILL
XAND2X2_5 AND2X2_5/A AND2X2_5/B gnd DFFSR_27/D vdd AND2X2
XOAI21X1_382 BUFX4_445/Y BUFX4_659/Y AOI22X1_70/C gnd OAI21X1_382/Y vdd OAI21X1
XFILL_12_DFFPOSX1_454 gnd vdd FILL
XFILL_7_AOI22X1_430 gnd vdd FILL
XFILL_20_DFFSR_9 gnd vdd FILL
XOAI21X1_393 INVX2_49/Y BUFX4_227/Y OAI21X1_394/Y gnd OAI21X1_393/Y vdd OAI21X1
XFILL_12_DFFPOSX1_465 gnd vdd FILL
XFILL_12_DFFPOSX1_476 gnd vdd FILL
XFILL_7_AOI22X1_441 gnd vdd FILL
XFILL_6_AOI22X1_270 gnd vdd FILL
XFILL_6_AOI22X1_281 gnd vdd FILL
XFILL_12_DFFPOSX1_487 gnd vdd FILL
XFILL_12_DFFPOSX1_498 gnd vdd FILL
XFILL_6_AOI22X1_292 gnd vdd FILL
XFILL_0_NAND3X1_460 gnd vdd FILL
XFILL_0_NAND3X1_471 gnd vdd FILL
XFILL_0_NAND3X1_482 gnd vdd FILL
XFILL_0_NAND3X1_493 gnd vdd FILL
XFILL_6_DFFPOSX1_503 gnd vdd FILL
XFILL_6_DFFPOSX1_514 gnd vdd FILL
XFILL_6_DFFPOSX1_525 gnd vdd FILL
XFILL_6_DFFPOSX1_536 gnd vdd FILL
XFILL_6_DFFPOSX1_547 gnd vdd FILL
XFILL_6_DFFPOSX1_558 gnd vdd FILL
XFILL_6_DFFPOSX1_569 gnd vdd FILL
XFILL_7_10_1 gnd vdd FILL
XFILL_49_4_0 gnd vdd FILL
XFILL_4_OAI21X1_401 gnd vdd FILL
XFILL_3_OAI21X1_230 gnd vdd FILL
XFILL_4_OAI21X1_412 gnd vdd FILL
XFILL_3_OAI21X1_241 gnd vdd FILL
XFILL_4_OAI21X1_423 gnd vdd FILL
XFILL_17_DFFPOSX1_18 gnd vdd FILL
XFILL_3_OAI21X1_252 gnd vdd FILL
XFILL_5_OAI21X1_605 gnd vdd FILL
XFILL_4_OAI21X1_434 gnd vdd FILL
XFILL_17_DFFPOSX1_29 gnd vdd FILL
XFILL_3_OAI21X1_263 gnd vdd FILL
XFILL_5_OAI21X1_616 gnd vdd FILL
XFILL_4_OAI21X1_445 gnd vdd FILL
XFILL_5_OAI21X1_627 gnd vdd FILL
XFILL_3_OAI21X1_274 gnd vdd FILL
XFILL_4_OAI21X1_456 gnd vdd FILL
XFILL_3_OAI21X1_285 gnd vdd FILL
XFILL_4_OAI21X1_467 gnd vdd FILL
XFILL_5_OAI21X1_638 gnd vdd FILL
XFILL_3_OAI21X1_296 gnd vdd FILL
XFILL_4_OAI21X1_478 gnd vdd FILL
XFILL_5_OAI21X1_649 gnd vdd FILL
XFILL_0_NAND2X1_106 gnd vdd FILL
XFILL_6_CLKBUF1_12 gnd vdd FILL
XFILL_4_OAI21X1_489 gnd vdd FILL
XFILL_0_NAND2X1_117 gnd vdd FILL
XFILL_0_NAND2X1_128 gnd vdd FILL
XFILL_6_CLKBUF1_23 gnd vdd FILL
XFILL_6_CLKBUF1_34 gnd vdd FILL
XFILL_0_NAND2X1_139 gnd vdd FILL
XFILL_0_INVX1_120 gnd vdd FILL
XFILL_6_CLKBUF1_45 gnd vdd FILL
XFILL_0_INVX1_131 gnd vdd FILL
XFILL_6_CLKBUF1_56 gnd vdd FILL
XFILL_6_CLKBUF1_67 gnd vdd FILL
XFILL_1_AOI21X1_20 gnd vdd FILL
XFILL_0_INVX1_142 gnd vdd FILL
XFILL_0_INVX1_153 gnd vdd FILL
XFILL_1_AOI21X1_31 gnd vdd FILL
XFILL_0_INVX1_164 gnd vdd FILL
XFILL_6_CLKBUF1_78 gnd vdd FILL
XFILL_1_AOI21X1_42 gnd vdd FILL
XFILL_0_INVX1_175 gnd vdd FILL
XFILL_33_8_1 gnd vdd FILL
XFILL_1_AOI21X1_53 gnd vdd FILL
XFILL_0_INVX1_186 gnd vdd FILL
XFILL_1_AOI21X1_64 gnd vdd FILL
XFILL_0_INVX1_197 gnd vdd FILL
XFILL_1_AOI21X1_75 gnd vdd FILL
XFILL_32_3_0 gnd vdd FILL
XFILL_1_AOI21X1_86 gnd vdd FILL
XFILL_1_AOI21X1_97 gnd vdd FILL
XFILL_14_DFFPOSX1_504 gnd vdd FILL
XFILL_5_DFFPOSX1_104 gnd vdd FILL
XFILL_5_DFFPOSX1_115 gnd vdd FILL
XFILL_14_DFFPOSX1_515 gnd vdd FILL
XFILL_14_DFFPOSX1_526 gnd vdd FILL
XFILL_5_DFFPOSX1_126 gnd vdd FILL
XFILL_5_DFFPOSX1_137 gnd vdd FILL
XFILL_14_DFFPOSX1_537 gnd vdd FILL
XFILL_14_DFFPOSX1_548 gnd vdd FILL
XFILL_4_NOR2X1_141 gnd vdd FILL
XFILL_5_DFFPOSX1_148 gnd vdd FILL
XFILL_4_NAND2X1_440 gnd vdd FILL
XFILL_14_DFFPOSX1_559 gnd vdd FILL
XFILL_3_NAND2X1_280 gnd vdd FILL
XFILL_5_DFFPOSX1_159 gnd vdd FILL
XFILL_3_NAND2X1_291 gnd vdd FILL
XFILL_4_NOR2X1_174 gnd vdd FILL
XFILL_4_NAND2X1_473 gnd vdd FILL
XFILL_4_NAND2X1_495 gnd vdd FILL
XFILL_0_BUFX4_440 gnd vdd FILL
XFILL_8_DFFPOSX1_608 gnd vdd FILL
XFILL_0_BUFX4_451 gnd vdd FILL
XFILL_0_BUFX4_462 gnd vdd FILL
XFILL_8_DFFPOSX1_619 gnd vdd FILL
XFILL_0_BUFX4_473 gnd vdd FILL
XFILL_0_BUFX4_484 gnd vdd FILL
XFILL_0_BUFX4_495 gnd vdd FILL
XFILL_12_DFFPOSX1_14 gnd vdd FILL
XFILL_0_OAI21X1_601 gnd vdd FILL
XFILL_12_DFFPOSX1_25 gnd vdd FILL
XFILL_0_OAI21X1_612 gnd vdd FILL
XFILL_0_OAI21X1_623 gnd vdd FILL
XFILL_12_DFFPOSX1_36 gnd vdd FILL
XFILL_4_BUFX4_450 gnd vdd FILL
XFILL_12_DFFPOSX1_47 gnd vdd FILL
XFILL_1_OAI21X1_805 gnd vdd FILL
XFILL_2_OAI22X1_3 gnd vdd FILL
XFILL_0_OAI21X1_634 gnd vdd FILL
XFILL_12_DFFPOSX1_58 gnd vdd FILL
XFILL_0_OAI21X1_645 gnd vdd FILL
XFILL_2_AOI21X1_105 gnd vdd FILL
XFILL_12_DFFPOSX1_69 gnd vdd FILL
XFILL_1_OAI21X1_816 gnd vdd FILL
XFILL_4_BUFX4_461 gnd vdd FILL
XFILL_0_OAI21X1_656 gnd vdd FILL
XFILL_1_OAI21X1_827 gnd vdd FILL
XFILL_2_AOI21X1_116 gnd vdd FILL
XFILL_4_BUFX4_472 gnd vdd FILL
XFILL_4_BUFX4_483 gnd vdd FILL
XFILL_0_OAI21X1_667 gnd vdd FILL
XFILL_1_OAI21X1_838 gnd vdd FILL
XFILL_2_AOI21X1_127 gnd vdd FILL
XFILL_0_OAI21X1_678 gnd vdd FILL
XFILL_4_BUFX4_494 gnd vdd FILL
XFILL_3_AOI21X1_309 gnd vdd FILL
XFILL_1_OAI21X1_849 gnd vdd FILL
XFILL_2_AOI21X1_138 gnd vdd FILL
XFILL_0_OAI21X1_689 gnd vdd FILL
XFILL_2_AOI21X1_149 gnd vdd FILL
XFILL_6_OAI22X1_2 gnd vdd FILL
XFILL_13_DFFPOSX1_105 gnd vdd FILL
XFILL_1_AND2X2_13 gnd vdd FILL
XFILL_13_DFFPOSX1_116 gnd vdd FILL
XFILL_1_AND2X2_24 gnd vdd FILL
XFILL_13_DFFPOSX1_127 gnd vdd FILL
XFILL_13_DFFPOSX1_138 gnd vdd FILL
XFILL_13_DFFPOSX1_149 gnd vdd FILL
XFILL_4_XNOR2X1_19 gnd vdd FILL
XFILL_3_DFFPOSX1_19 gnd vdd FILL
XFILL_5_OAI21X1_30 gnd vdd FILL
XFILL_5_OAI21X1_41 gnd vdd FILL
XFILL_5_AND2X2_12 gnd vdd FILL
XFILL_5_OAI21X1_52 gnd vdd FILL
XFILL_4_OAI21X1_990 gnd vdd FILL
XFILL_5_OAI21X1_63 gnd vdd FILL
XFILL_5_AND2X2_23 gnd vdd FILL
XFILL_0_OAI21X1_1400 gnd vdd FILL
XFILL_1_NAND2X1_800 gnd vdd FILL
XFILL_5_OAI21X1_74 gnd vdd FILL
XFILL_0_OAI21X1_1411 gnd vdd FILL
XFILL_7_DFFPOSX1_209 gnd vdd FILL
XFILL_0_NAND2X1_640 gnd vdd FILL
XFILL_5_OAI21X1_85 gnd vdd FILL
XFILL_16_DFFPOSX1_609 gnd vdd FILL
XFILL_1_NAND2X1_811 gnd vdd FILL
XFILL_5_AOI21X1_290 gnd vdd FILL
XFILL_68_11_1 gnd vdd FILL
XFILL_1_NAND2X1_822 gnd vdd FILL
XFILL_0_OAI21X1_1422 gnd vdd FILL
XFILL_0_NAND2X1_651 gnd vdd FILL
XFILL_5_OAI21X1_96 gnd vdd FILL
XFILL_0_OAI21X1_1433 gnd vdd FILL
XFILL_0_NAND2X1_662 gnd vdd FILL
XFILL_1_NAND2X1_833 gnd vdd FILL
XFILL_5_DFFSR_2 gnd vdd FILL
XFILL_0_OAI21X1_1444 gnd vdd FILL
XFILL_1_NAND2X1_844 gnd vdd FILL
XFILL_24_8_1 gnd vdd FILL
XFILL_0_NAND2X1_673 gnd vdd FILL
XFILL_0_OAI21X1_1455 gnd vdd FILL
XFILL_1_NAND2X1_855 gnd vdd FILL
XFILL_0_NAND2X1_684 gnd vdd FILL
XFILL_1_BUFX4_608 gnd vdd FILL
XFILL_1_NAND2X1_866 gnd vdd FILL
XFILL_0_NAND2X1_695 gnd vdd FILL
XFILL_1_BUFX4_619 gnd vdd FILL
XFILL_0_OAI21X1_1466 gnd vdd FILL
XFILL_1_NAND2X1_877 gnd vdd FILL
XFILL_23_3_0 gnd vdd FILL
XFILL_0_OAI21X1_1477 gnd vdd FILL
XFILL_0_OAI21X1_1488 gnd vdd FILL
XFILL_1_NAND2X1_888 gnd vdd FILL
XFILL_0_OAI21X1_1499 gnd vdd FILL
XFILL_1_NAND2X1_899 gnd vdd FILL
XFILL_4_DFFPOSX1_6 gnd vdd FILL
XFILL_10_CLKBUF1_9 gnd vdd FILL
XFILL_5_OAI21X1_1070 gnd vdd FILL
XFILL_5_OAI21X1_1081 gnd vdd FILL
XFILL_5_BUFX4_607 gnd vdd FILL
XFILL_0_BUFX2_8 gnd vdd FILL
XFILL_5_BUFX4_618 gnd vdd FILL
XFILL_5_DFFPOSX1_660 gnd vdd FILL
XFILL_5_OAI21X1_1092 gnd vdd FILL
XFILL_5_BUFX4_629 gnd vdd FILL
XFILL_5_DFFPOSX1_671 gnd vdd FILL
XFILL_5_DFFPOSX1_682 gnd vdd FILL
XFILL_12_CLKBUF1_70 gnd vdd FILL
XFILL_5_DFFPOSX1_693 gnd vdd FILL
XFILL_12_CLKBUF1_81 gnd vdd FILL
XFILL_2_NAND3X1_109 gnd vdd FILL
XFILL_13_DFFSR_18 gnd vdd FILL
XFILL_13_DFFSR_29 gnd vdd FILL
XFILL_3_NAND3X1_4 gnd vdd FILL
XFILL_10_DFFPOSX1_190 gnd vdd FILL
XFILL_7_9_1 gnd vdd FILL
XFILL_6_4_0 gnd vdd FILL
XFILL_5_NAND3X1_250 gnd vdd FILL
XFILL_2_OAI21X1_1505 gnd vdd FILL
XFILL_5_NAND3X1_261 gnd vdd FILL
XFILL_2_OAI21X1_1516 gnd vdd FILL
XFILL_5_NAND3X1_272 gnd vdd FILL
XFILL_4_DFFPOSX1_250 gnd vdd FILL
XFILL_2_OAI21X1_1527 gnd vdd FILL
XFILL_13_DFFPOSX1_650 gnd vdd FILL
XFILL_13_DFFPOSX1_661 gnd vdd FILL
XFILL_4_DFFPOSX1_261 gnd vdd FILL
XFILL_5_NAND3X1_283 gnd vdd FILL
XFILL_2_OAI21X1_1538 gnd vdd FILL
XFILL_13_DFFPOSX1_672 gnd vdd FILL
XFILL_4_DFFPOSX1_272 gnd vdd FILL
XFILL_0_NAND2X1_19 gnd vdd FILL
XFILL_5_NAND3X1_294 gnd vdd FILL
XFILL_4_DFFPOSX1_283 gnd vdd FILL
XFILL_2_OAI21X1_1549 gnd vdd FILL
XFILL_13_DFFPOSX1_683 gnd vdd FILL
XFILL_13_DFFPOSX1_694 gnd vdd FILL
XFILL_4_DFFPOSX1_294 gnd vdd FILL
XFILL_12_11_0 gnd vdd FILL
XFILL_22_DFFSR_16 gnd vdd FILL
XFILL_22_DFFSR_27 gnd vdd FILL
XFILL_22_DFFSR_38 gnd vdd FILL
XFILL_2_BUFX4_360 gnd vdd FILL
XFILL_22_DFFSR_49 gnd vdd FILL
XFILL_7_DFFPOSX1_710 gnd vdd FILL
XFILL_2_BUFX4_371 gnd vdd FILL
XFILL_2_BUFX4_382 gnd vdd FILL
XFILL_0_INVX2_8 gnd vdd FILL
XFILL_15_8_1 gnd vdd FILL
XFILL_2_BUFX4_393 gnd vdd FILL
XFILL_14_3_0 gnd vdd FILL
XFILL_4_AOI22X1_108 gnd vdd FILL
XFILL_4_AOI22X1_119 gnd vdd FILL
XFILL_3_AOI22X1_9 gnd vdd FILL
XFILL_1_BUFX2_140 gnd vdd FILL
XFILL_1_BUFX2_151 gnd vdd FILL
XFILL_5_DFFSR_17 gnd vdd FILL
XDFFSR_9 DFFSR_9/Q DFFSR_9/CLK DFFSR_9/R vdd DFFSR_9/D gnd vdd DFFSR
XFILL_5_DFFSR_28 gnd vdd FILL
XFILL_7_AOI22X1_8 gnd vdd FILL
XFILL_31_DFFSR_14 gnd vdd FILL
XFILL_5_DFFSR_39 gnd vdd FILL
XFILL_12_DFFPOSX1_240 gnd vdd FILL
XFILL_1_OAI21X1_1106 gnd vdd FILL
XFILL_31_DFFSR_25 gnd vdd FILL
XFILL_12_DFFPOSX1_251 gnd vdd FILL
XFILL_1_OAI21X1_1117 gnd vdd FILL
XFILL_1_OAI21X1_1128 gnd vdd FILL
XFILL_31_DFFSR_36 gnd vdd FILL
XOAI21X1_190 INVX2_21/Y OAI21X1_5/B OAI21X1_191/Y gnd OAI21X1_190/Y vdd OAI21X1
XFILL_0_AOI22X1_17 gnd vdd FILL
XDFFPOSX1_509 INVX1_123/A DFFSR_3/CLK NAND2X1_572/Y gnd vdd DFFPOSX1
XFILL_31_DFFSR_47 gnd vdd FILL
XFILL_12_DFFPOSX1_262 gnd vdd FILL
XFILL_0_AOI22X1_28 gnd vdd FILL
XINVX1_210 NOR3X1_32/B gnd INVX1_210/Y vdd INVX1
XFILL_1_DFFPOSX1_707 gnd vdd FILL
XFILL_12_DFFPOSX1_273 gnd vdd FILL
XFILL_31_DFFSR_58 gnd vdd FILL
XINVX1_221 INVX1_221/A gnd INVX1_221/Y vdd INVX1
XFILL_1_OAI21X1_1139 gnd vdd FILL
XFILL_12_DFFPOSX1_284 gnd vdd FILL
XFILL_0_AOI22X1_39 gnd vdd FILL
XFILL_1_DFFPOSX1_718 gnd vdd FILL
XFILL_12_DFFPOSX1_295 gnd vdd FILL
XINVX1_232 gnd gnd INVX1_232/Y vdd INVX1
XFILL_7_AOI22X1_271 gnd vdd FILL
XINVX1_243 gnd gnd INVX1_243/Y vdd INVX1
XFILL_4_AOI21X1_19 gnd vdd FILL
XFILL_1_NAND3X1_450 gnd vdd FILL
XINVX1_254 INVX1_254/A gnd INVX1_254/Y vdd INVX1
XFILL_7_AOI22X1_282 gnd vdd FILL
XINVX1_265 INVX1_265/A gnd INVX1_265/Y vdd INVX1
XFILL_15_DFFPOSX1_700 gnd vdd FILL
XFILL_6_DFFPOSX1_300 gnd vdd FILL
XFILL_1_NAND3X1_461 gnd vdd FILL
XINVX1_276 INVX1_276/A gnd INVX1_276/Y vdd INVX1
XFILL_0_NAND3X1_290 gnd vdd FILL
XFILL_6_DFFPOSX1_311 gnd vdd FILL
XFILL_15_DFFPOSX1_711 gnd vdd FILL
XFILL_1_NAND3X1_472 gnd vdd FILL
XFILL_1_NAND3X1_483 gnd vdd FILL
XFILL_6_DFFPOSX1_322 gnd vdd FILL
XFILL_1_NAND3X1_494 gnd vdd FILL
XFILL_6_DFFPOSX1_333 gnd vdd FILL
XFILL_6_DFFPOSX1_344 gnd vdd FILL
XFILL_3_BUFX4_506 gnd vdd FILL
XFILL_6_DFFPOSX1_355 gnd vdd FILL
XFILL_3_BUFX4_517 gnd vdd FILL
XFILL_3_BUFX4_528 gnd vdd FILL
XFILL_6_DFFPOSX1_366 gnd vdd FILL
XFILL_3_BUFX4_539 gnd vdd FILL
XFILL_6_DFFPOSX1_377 gnd vdd FILL
XFILL_17_10_0 gnd vdd FILL
XNAND2X1_10 NAND2X1_10/A NAND2X1_10/B gnd INVX2_129/A vdd NAND2X1
XFILL_6_DFFPOSX1_388 gnd vdd FILL
XFILL_6_DFFPOSX1_399 gnd vdd FILL
XNAND2X1_21 NAND2X1_21/A NAND2X1_21/B gnd INVX2_115/A vdd NAND2X1
XNAND2X1_32 NAND2X1_32/A NAND2X1_32/B gnd INVX2_131/A vdd NAND2X1
XFILL_4_OAI21X1_220 gnd vdd FILL
XNAND2X1_43 NAND2X1_43/A NAND2X1_43/B gnd INVX2_124/A vdd NAND2X1
XFILL_5_OAI21X1_402 gnd vdd FILL
XNAND2X1_54 NAND2X1_54/A NAND2X1_54/B gnd INVX2_108/A vdd NAND2X1
XFILL_4_OAI21X1_231 gnd vdd FILL
XFILL_5_OAI21X1_413 gnd vdd FILL
XFILL_5_BUFX4_80 gnd vdd FILL
XNAND2X1_65 NAND2X1_65/A NAND2X1_65/B gnd INVX2_128/A vdd NAND2X1
XFILL_4_OAI21X1_242 gnd vdd FILL
XBUFX4_530 BUFX4_533/A gnd BUFX4_530/Y vdd BUFX4
XFILL_65_7_1 gnd vdd FILL
XFILL_5_BUFX4_91 gnd vdd FILL
XNAND2X1_76 NAND2X1_76/A NAND2X1_76/B gnd INVX1_16/A vdd NAND2X1
XFILL_5_OAI21X1_424 gnd vdd FILL
XFILL_11_NOR3X1_9 gnd vdd FILL
XFILL_4_OAI21X1_253 gnd vdd FILL
XFILL_5_OAI21X1_435 gnd vdd FILL
XNAND2X1_87 INVX1_27/Y INVX2_78/Y gnd NAND2X1_87/Y vdd NAND2X1
XFILL_4_OAI21X1_264 gnd vdd FILL
XBUFX4_541 BUFX4_541/A gnd BUFX4_541/Y vdd BUFX4
XNAND2X1_98 NAND2X1_98/A NAND2X1_98/B gnd NAND2X1_98/Y vdd NAND2X1
XFILL_5_OAI21X1_446 gnd vdd FILL
XBUFX4_552 NOR3X1_10/Y gnd BUFX4_552/Y vdd BUFX4
XFILL_64_2_0 gnd vdd FILL
XFILL_0_AOI22X1_308 gnd vdd FILL
XFILL_4_OAI21X1_275 gnd vdd FILL
XBUFX4_563 BUFX4_568/A gnd NOR2X1_94/A vdd BUFX4
XFILL_5_OAI21X1_457 gnd vdd FILL
XBUFX4_574 BUFX4_577/A gnd BUFX4_574/Y vdd BUFX4
XFILL_42_2 gnd vdd FILL
XFILL_0_AOI22X1_319 gnd vdd FILL
XFILL_4_OAI21X1_286 gnd vdd FILL
XFILL_5_OAI21X1_468 gnd vdd FILL
XBUFX4_585 NOR3X1_8/Y gnd BUFX4_585/Y vdd BUFX4
XFILL_4_OAI21X1_297 gnd vdd FILL
XFILL_5_OAI21X1_479 gnd vdd FILL
XFILL_1_NAND2X1_107 gnd vdd FILL
XBUFX4_596 INVX8_14/Y gnd BUFX4_596/Y vdd BUFX4
XFILL_1_NAND2X1_118 gnd vdd FILL
XFILL_1_NAND2X1_129 gnd vdd FILL
XFILL_35_1 gnd vdd FILL
XFILL_0_DFFPOSX1_308 gnd vdd FILL
XFILL_0_DFFPOSX1_319 gnd vdd FILL
XFILL_14_DFFPOSX1_301 gnd vdd FILL
XFILL_14_DFFPOSX1_312 gnd vdd FILL
XAOI21X1_203 INVX2_145/Y NOR2X1_50/B BUFX4_474/Y gnd OAI21X1_889/C vdd AOI21X1
XFILL_6_XOR2X1_1 gnd vdd FILL
XFILL_14_DFFPOSX1_323 gnd vdd FILL
XAOI21X1_214 BUFX4_171/Y NAND2X1_89/Y BUFX4_605/Y gnd AOI22X1_301/C vdd AOI21X1
XFILL_14_DFFPOSX1_334 gnd vdd FILL
XAOI21X1_225 INVX2_121/Y BUFX4_373/Y BUFX4_131/Y gnd OAI21X1_900/C vdd AOI21X1
XFILL_14_DFFPOSX1_345 gnd vdd FILL
XFILL_14_DFFPOSX1_356 gnd vdd FILL
XAOI21X1_236 BUFX4_172/Y AOI21X1_98/A NOR2X1_52/A gnd AOI22X1_312/C vdd AOI21X1
XAOI21X1_247 INVX2_143/Y BUFX4_374/Y BUFX4_132/Y gnd OAI21X1_911/C vdd AOI21X1
XFILL_14_DFFPOSX1_367 gnd vdd FILL
XFILL_4_OAI22X1_16 gnd vdd FILL
XAOI21X1_258 NOR3X1_14/Y NOR3X1_15/Y OAI22X1_7/Y gnd NAND2X1_773/B vdd AOI21X1
XFILL_14_DFFPOSX1_378 gnd vdd FILL
XAOI21X1_269 INVX4_1/Y OR2X2_7/B NOR3X1_15/C gnd AOI22X1_337/C vdd AOI21X1
XFILL_0_NOR3X1_15 gnd vdd FILL
XFILL_4_NAND2X1_281 gnd vdd FILL
XFILL_14_DFFPOSX1_389 gnd vdd FILL
XAOI22X1_30 OAI21X1_38/C BUFX4_611/Y AOI22X1_30/C NOR2X1_3/B gnd NAND2X1_23/A vdd
+ AOI22X1
XFILL_0_NOR3X1_26 gnd vdd FILL
XAOI22X1_41 OAI21X1_67/C BUFX4_611/Y DFFPOSX1_7/Q BUFX4_156/Y gnd NAND2X1_28/A vdd
+ AOI22X1
XFILL_0_NOR3X1_37 gnd vdd FILL
XAOI22X1_52 AOI22X1_52/A BUFX4_284/Y AOI22X1_52/C BUFX4_513/Y gnd NAND2X1_40/A vdd
+ AOI22X1
XOAI21X1_1420 INVX2_206/Y BUFX4_478/Y OAI21X1_1421/Y gnd OAI21X1_1420/Y vdd OAI21X1
XAOI22X1_63 AOI22X1_63/A BUFX4_284/Y AOI22X1_63/C BUFX4_513/Y gnd NAND2X1_45/A vdd
+ AOI22X1
XAOI22X1_74 BUFX4_510/Y AOI22X1_74/B AOI22X1_74/C BUFX4_517/Y gnd NAND2X1_55/B vdd
+ AOI22X1
XFILL_8_DFFPOSX1_405 gnd vdd FILL
XOAI21X1_1431 INVX2_209/Y BUFX4_475/Y OAI21X1_1432/Y gnd OAI21X1_1431/Y vdd OAI21X1
XFILL_8_DFFPOSX1_416 gnd vdd FILL
XFILL_6_MUX2X1_2 gnd vdd FILL
XFILL_0_BUFX4_270 gnd vdd FILL
XFILL_8_DFFPOSX1_427 gnd vdd FILL
XOAI21X1_1442 BUFX4_683/Y BUFX4_321/Y AOI22X1_432/A gnd OAI21X1_1442/Y vdd OAI21X1
XAOI22X1_85 BUFX4_512/Y AOI22X1_85/B AOI22X1_85/C NOR2X1_14/A gnd NAND2X1_61/B vdd
+ AOI22X1
XOAI21X1_1453 INVX2_196/Y BUFX4_475/Y OAI21X1_1454/Y gnd OAI21X1_1453/Y vdd OAI21X1
XAOI22X1_96 BUFX4_512/Y AOI22X1_96/B AOI22X1_96/C NOR2X1_14/A gnd NAND2X1_66/B vdd
+ AOI22X1
XFILL_0_BUFX4_281 gnd vdd FILL
XFILL_8_DFFPOSX1_438 gnd vdd FILL
XOAI21X1_1464 BUFX4_194/Y BUFX4_326/Y AOI22X1_409/C gnd OAI21X1_1464/Y vdd OAI21X1
XFILL_0_BUFX4_292 gnd vdd FILL
XFILL_2_INVX2_11 gnd vdd FILL
XFILL_4_NOR3X1_14 gnd vdd FILL
XFILL_8_DFFPOSX1_449 gnd vdd FILL
XOAI21X1_1475 INVX2_209/Y BUFX4_615/Y OAI21X1_1476/Y gnd OAI21X1_1475/Y vdd OAI21X1
XFILL_2_INVX2_22 gnd vdd FILL
XFILL_3_NAND3X1_70 gnd vdd FILL
XFILL_2_INVX2_33 gnd vdd FILL
XFILL_4_NOR3X1_25 gnd vdd FILL
XOAI21X1_1486 BUFX4_197/Y BUFX4_324/Y AOI22X1_402/C gnd OAI21X1_1486/Y vdd OAI21X1
XFILL_3_NAND3X1_81 gnd vdd FILL
XFILL_4_NOR3X1_36 gnd vdd FILL
XOAI21X1_1497 INVX2_197/Y BUFX4_614/Y OAI21X1_1498/Y gnd OAI21X1_1497/Y vdd OAI21X1
XFILL_0_OAI21X1_420 gnd vdd FILL
XFILL_13_DFFPOSX1_15 gnd vdd FILL
XFILL_2_INVX2_44 gnd vdd FILL
XFILL_9_DFFSR_3 gnd vdd FILL
XFILL_3_NAND3X1_92 gnd vdd FILL
XFILL_2_INVX2_55 gnd vdd FILL
XFILL_0_OAI21X1_431 gnd vdd FILL
XFILL_1_OAI21X1_602 gnd vdd FILL
XFILL_13_DFFPOSX1_26 gnd vdd FILL
XFILL_2_INVX2_66 gnd vdd FILL
XFILL_0_OAI21X1_442 gnd vdd FILL
XFILL_1_OAI21X1_613 gnd vdd FILL
XFILL_2_INVX2_77 gnd vdd FILL
XFILL_1_OAI21X1_624 gnd vdd FILL
XFILL_13_DFFPOSX1_37 gnd vdd FILL
XFILL_2_INVX2_88 gnd vdd FILL
XFILL_0_OAI21X1_453 gnd vdd FILL
XFILL_1_OAI21X1_635 gnd vdd FILL
XFILL_13_DFFPOSX1_48 gnd vdd FILL
XFILL_2_OAI21X1_806 gnd vdd FILL
XFILL_0_OAI21X1_464 gnd vdd FILL
XFILL_13_DFFPOSX1_59 gnd vdd FILL
XFILL_4_BUFX4_280 gnd vdd FILL
XFILL_2_OAI21X1_817 gnd vdd FILL
XFILL_2_INVX2_99 gnd vdd FILL
XFILL_1_OAI21X1_646 gnd vdd FILL
XFILL_0_OAI21X1_475 gnd vdd FILL