*SPEF "IEEE 1481.1999"
*DESIGN "noc_router"
*DATE "14:05:43 Tuesday June 30, 2026"
*VENDOR "unknown"
*PROGRAM "qrouter"
*VERSION "unknown"
*DESIGN_FLOW "qflow"
*DIVIDER /
*DELIMITER :
*BUS_DELIMITER <>
*T_UNIT 1 PS
*C_UNIT 1 FF
*R_UNIT 1 OHM
*L_UNIT 1 HENRY

*NAME_MAP
*1 rst_n_bF_buf13
*2 BUFX4_44
*3 DFFSR_52
*4 NAND3X1_162
*5 NAND3X1_182
*6 NAND3X1_181
*7 NAND3X1_173
*8 NAND3X1_183
*9 DFFSR_64
*10 DFFSR_46
*11 DFFSR_51
*12 DFFSR_6
*13 DFFSR_10
*14 DFFSR_9
*15 DFFSR_5
*16 DFFSR_45
*17 DFFSR_61
*18 DFFSR_8
*19 rst_n_bF_buf12
*20 BUFX4_45
*21 NAND3X1_366
*22 NAND3X1_386
*23 NAND3X1_380
*24 NAND3X1_368
*25 NAND3X1_370
*26 NAND3X1_383
*27 INVX8_34
*28 NAND3X1_385
*29 NAND3X1_375
*30 NAND3X1_387
*31 NAND3X1_382
*32 NAND3X1_377
*33 DFFSR_43
*34 NAND3X1_365
*35 NAND3X1_388
*36 NAND3X1_379
*37 rst_n_bF_buf11
*38 BUFX4_46
*39 NAND3X1_317
*40 NAND3X1_332
*41 NAND3X1_338
*42 NAND3X1_321
*43 NAND3X1_333
*44 NAND3X1_336
*45 NAND3X1_319
*46 NAND3X1_324
*47 NAND3X1_361
*48 NAND3X1_327
*49 NAND3X1_314
*50 NAND3X1_320
*51 NAND3X1_334
*52 NAND3X1_315
*53 NAND3X1_337
*54 NAND3X1_326
*55 rst_n_bF_buf10
*56 BUFX4_47
*57 DFFSR_12
*58 DFFSR_14
*59 NAND3X1_24
*60 NAND3X1_20
*61 NAND3X1_22
*62 DFFSR_59
*63 DFFSR_56
*64 DFFSR_58
*65 NAND3X1_509
*66 NAND3X1_507
*67 NAND3X1_508
*68 NAND3X1_510
*69 NAND3X1_511
*70 DFFSR_57
*71 DFFSR_55
*72 DFFSR_13
*73 rst_n_bF_buf9
*74 BUFX4_48
*75 DFFSR_38
*76 DFFSR_37
*77 DFFSR_40
*78 DFFSR_23
*79 DFFSR_19
*80 DFFSR_24
*81 DFFSR_21
*82 NAND3X1_32
*83 DFFSR_20
*84 NAND3X1_329
*85 NAND3X1_318
*86 DFFSR_39
*87 INVX8_32
*88 NAND3X1_331
*89 NAND3X1_330
*90 NAND3X1_335
*91 rst_n_bF_buf8
*92 BUFX4_49
*93 INVX8_26
*94 NAND3X1_179
*95 DFFSR_53
*96 DFFSR_54
*97 DFFSR_65
*98 DFFSR_25
*99 NAND3X1_174
*100 NAND3X1_170
*101 NAND3X1_180
*102 NAND3X1_165
*103 NAND3X1_167
*104 NAND3X1_316
*105 NAND3X1_328
*106 NAND3X1_323
*107 NAND3X1_325
*108 NAND3X1_161
*109 rst_n_bF_buf7
*110 BUFX4_50
*111 NAND3X1_172
*112 NAND3X1_164
*113 NAND3X1_178
*114 NAND3X1_177
*115 DFFSR_28
*116 NAND3X1_185
*117 NAND3X1_175
*118 NAND3X1_184
*119 NAND3X1_208
*120 NAND3X1_168
*121 NAND3X1_171
*122 NAND3X1_163
*123 DFFSR_27
*124 NAND3X1_176
*125 DFFSR_26
*126 NAND3X1_166
*127 rst_n_bF_buf6
*128 BUFX4_51
*129 NAND3X1_269
*130 NAND3X1_274
*131 NAND3X1_285
*132 DFFSR_18
*133 DFFSR_11
*134 DFFSR_3
*135 DFFSR_2
*136 NAND3X1_265
*137 DFFSR_35
*138 DFFSR_1
*139 DFFSR_4
*140 NAND3X1_5
*141 NAND3X1_2
*142 NAND3X1_6
*143 NAND3X1_4
*144 NAND3X1_3
*145 rst_n_bF_buf5
*146 BUFX4_52
*147 NAND3X1_369
*148 NAND3X1_389
*149 NAND3X1_371
*150 NAND3X1_367
*151 NAND3X1_376
*152 NAND3X1_230
*153 INVX8_28
*154 NAND3X1_227
*155 NAND3X1_219
*156 DFFSR_30
*157 DFFSR_32
*158 DFFSR_29
*159 DFFSR_31
*160 NAND3X1_374
*161 NAND3X1_234
*162 NAND3X1_229
*163 rst_n_bF_buf4
*164 BUFX4_53
*165 DFFSR_47
*166 DFFSR_22
*167 NAND3X1_30
*168 NAND3X1_33
*169 NAND3X1_29
*170 NAND3X1_31
*171 DFFSR_42
*172 DFFSR_48
*173 DFFSR_62
*174 DFFSR_44
*175 DFFSR_41
*176 NAND3X1_372
*177 NAND3X1_378
*178 NAND3X1_384
*179 NAND3X1_381
*180 NAND3X1_412
*181 rst_n_bF_buf3
*182 BUFX4_54
*183 DFFSR_15
*184 DFFSR_60
*185 NAND3X1_273
*186 NAND3X1_275
*187 NAND3X1_272
*188 NAND3X1_263
*189 INVX8_30
*190 NAND3X1_266
*191 NAND3X1_278
*192 NAND3X1_283
*193 NAND3X1_286
*194 NAND3X1_280
*195 NAND3X1_287
*196 NAND3X1_279
*197 NAND3X1_282
*198 rst_n_bF_buf2
*199 BUFX4_55
*200 DFFSR_16
*201 DFFSR_17
*202 NAND3X1_21
*203 NAND3X1_23
*204 NAND3X1_215
*205 NAND3X1_228
*206 NAND3X1_216
*207 NAND3X1_218
*208 NAND3X1_222
*209 NAND3X1_15
*210 NAND3X1_12
*211 NAND3X1_11
*212 DFFSR_7
*213 NAND3X1_14
*214 NAND3X1_13
*215 rst_n_bF_buf1
*216 BUFX4_56
*217 NAND3X1_284
*218 NAND3X1_268
*219 NAND3X1_310
*220 NAND3X1_264
*221 NAND3X1_276
*222 NAND3X1_270
*223 NAND3X1_281
*224 DFFSR_36
*225 DFFSR_33
*226 DFFSR_34
*227 DFFSR_63
*228 DFFSR_50
*229 DFFSR_49
*230 NAND3X1_277
*231 NAND3X1_267
*232 rst_n_bF_buf0
*233 BUFX4_57
*234 NAND3X1_217
*235 NAND3X1_236
*236 NAND3X1_214
*237 NAND3X1_233
*238 NAND3X1_235
*239 NAND3X1_225
*240 NAND3X1_231
*241 NAND3X1_232
*242 NAND3X1_213
*243 NAND3X1_212
*244 NAND3X1_221
*245 NAND3X1_259
*246 NAND3X1_224
*247 NAND3X1_226
*248 NAND3X1_223
*249 rst_n
*250 BUFX4_48
*251 BUFX4_50
*252 BUFX4_49
*253 BUFX4_46
*254 BUFX4_44
*255 BUFX4_45
*256 BUFX4_52
*257 BUFX4_57
*258 BUFX4_55
*259 BUFX4_47
*260 BUFX4_54
*261 BUFX4_56
*262 BUFX4_51
*263 BUFX4_53
*264 _529__bF_buf8
*265 BUFX4_135
*266 OAI21X1_491
*267 OAI21X1_529
*268 OAI21X1_537
*269 OAI21X1_481
*270 OAI21X1_432
*271 OAI21X1_555
*272 OAI21X1_523
*273 OAI21X1_539
*274 OAI21X1_561
*275 OAI21X1_513
*276 OAI21X1_489
*277 _529__bF_buf7
*278 BUFX4_136
*279 OAI21X1_497
*280 OAI21X1_505
*281 OAI21X1_483
*282 OAI21X1_501
*283 OAI21X1_549
*284 OAI21X1_531
*285 OAI21X1_459
*286 OAI21X1_453
*287 OAI21X1_593
*288 OAI21X1_449
*289 OAI21X1_402
*290 _529__bF_buf6
*291 BUFX4_137
*292 OAI21X1_447
*293 OAI21X1_471
*294 OAI21X1_416
*295 OAI21X1_579
*296 OAI21X1_426
*297 OAI21X1_412
*298 OAI21X1_451
*299 OAI21X1_414
*300 OAI21X1_577
*301 OAI21X1_571
*302 OAI21X1_589
*303 _529__bF_buf5
*304 BUFX4_138
*305 OAI21X1_438
*306 OAI21X1_585
*307 OAI21X1_455
*308 OAI21X1_465
*309 OAI21X1_507
*310 OAI21X1_485
*311 OAI21X1_543
*312 OAI21X1_495
*313 OAI21X1_509
*314 OAI21X1_408
*315 OAI21X1_487
*316 _529__bF_buf4
*317 BUFX4_139
*318 OAI21X1_591
*319 OAI21X1_541
*320 OAI21X1_517
*321 OAI21X1_565
*322 OAI21X1_567
*323 OAI21X1_410
*324 OAI21X1_428
*325 OAI21X1_467
*326 OAI21X1_420
*327 OAI21X1_519
*328 OAI21X1_557
*329 _529__bF_buf3
*330 BUFX4_140
*331 OAI21X1_527
*332 OAI21X1_469
*333 OAI21X1_440
*334 OAI21X1_521
*335 OAI21X1_511
*336 OAI21X1_442
*337 OAI21X1_436
*338 OAI21X1_473
*339 OAI21X1_583
*340 OAI21X1_418
*341 OAI21X1_424
*342 _3705__bF_buf8
*343 BUFX4_144
*344 OAI21X1_20
*345 OAI21X1_14
*346 OAI21X1_59
*347 OAI21X1_55
*348 OAI21X1_101
*349 OAI21X1_161
*350 OAI21X1_2
*351 OAI21X1_195
*352 OAI21X1_145
*353 OAI21X1_97
*354 OAI21X1_36
*355 _3705__bF_buf7
*356 BUFX4_145
*357 OAI21X1_159
*358 OAI21X1_151
*359 OAI21X1_155
*360 OAI21X1_107
*361 OAI21X1_69
*362 OAI21X1_12
*363 OAI21X1_89
*364 OAI21X1_65
*365 OAI21X1_8
*366 OAI21X1_4
*367 OAI21X1_61
*368 _3705__bF_buf6
*369 BUFX4_146
*370 OAI21X1_18
*371 OAI21X1_99
*372 OAI21X1_119
*373 OAI21X1_115
*374 OAI21X1_197
*375 OAI21X1_42
*376 OAI21X1_125
*377 OAI21X1_53
*378 OAI21X1_28
*379 OAI21X1_16
*380 OAI21X1_147
*381 _3705__bF_buf5
*382 BUFX4_147
*383 OAI21X1_63
*384 OAI21X1_6
*385 OAI21X1_153
*386 OAI21X1_191
*387 OAI21X1_49
*388 OAI21X1_67
*389 OAI21X1_141
*390 OAI21X1_93
*391 OAI21X1_10
*392 OAI21X1_109
*393 OAI21X1_157
*394 _3705__bF_buf4
*395 BUFX4_148
*396 OAI21X1_187
*397 OAI21X1_137
*398 OAI21X1_40
*399 OAI21X1_193
*400 OAI21X1_85
*401 OAI21X1_149
*402 OAI21X1_183
*403 OAI21X1_143
*404 OAI21X1_51
*405 OAI21X1_95
*406 OAI21X1_133
*407 _3705__bF_buf3
*408 BUFX4_149
*409 OAI21X1_105
*410 OAI21X1_26
*411 OAI21X1_129
*412 OAI21X1_123
*413 OAI21X1_171
*414 OAI21X1_175
*415 OAI21X1_127
*416 OAI21X1_32
*417 OAI21X1_30
*418 OAI21X1_185
*419 OAI21X1_135
*420 _3522__bF_buf8
*421 BUFX4_318
*422 OAI21X1_1427
*423 OAI21X1_1472
*424 OAI21X1_1446
*425 OAI21X1_1488
*426 OAI21X1_1468
*427 OAI21X1_1566
*428 OAI21X1_1436
*429 OAI21X1_1419
*430 OAI21X1_1520
*431 OAI21X1_1385
*432 OAI21X1_1570
*433 _3522__bF_buf7
*434 BUFX4_319
*435 OAI21X1_1421
*436 OAI21X1_1550
*437 OAI21X1_1405
*438 OAI21X1_1502
*439 OAI21X1_1462
*440 OAI21X1_1444
*441 OAI21X1_1504
*442 OAI21X1_1510
*443 OAI21X1_1534
*444 OAI21X1_1492
*445 OAI21X1_1470
*446 _3522__bF_buf6
*447 BUFX4_320
*448 OAI21X1_1568
*449 OAI21X1_1556
*450 OAI21X1_1413
*451 OAI21X1_1409
*452 OAI21X1_1560
*453 OAI21X1_1476
*454 OAI21X1_1448
*455 OAI21X1_1506
*456 OAI21X1_1496
*457 OAI21X1_1454
*458 OAI21X1_1508
*459 _3522__bF_buf5
*460 BUFX4_321
*461 OAI21X1_1522
*462 OAI21X1_1442
*463 OAI21X1_1430
*464 OAI21X1_1512
*465 OAI21X1_1415
*466 OAI21X1_1562
*467 OAI21X1_1440
*468 OAI21X1_1395
*469 OAI21X1_1383
*470 OAI21X1_1452
*471 OAI21X1_1572
*472 _3522__bF_buf4
*473 BUFX4_322
*474 OAI21X1_1478
*475 OAI21X1_1576
*476 OAI21X1_1526
*477 OAI21X1_1391
*478 OAI21X1_1544
*479 OAI21X1_1399
*480 OAI21X1_1411
*481 OAI21X1_1480
*482 OAI21X1_1538
*483 OAI21X1_1490
*484 OAI21X1_1528
*485 _3522__bF_buf3
*486 BUFX4_323
*487 OAI21X1_1389
*488 OAI21X1_1536
*489 OAI21X1_1456
*490 OAI21X1_1516
*491 OAI21X1_1438
*492 OAI21X1_1423
*493 OAI21X1_1397
*494 OAI21X1_1425
*495 OAI21X1_1578
*496 OAI21X1_1434
*497 OAI21X1_1546
*498 _3069__bF_buf8
*499 BUFX4_406
*500 OAI21X1_782
*501 OAI21X1_750
*502 OAI21X1_732
*503 OAI21X1_736
*504 OAI21X1_766
*505 OAI21X1_643
*506 OAI21X1_603
*507 OAI21X1_786
*508 OAI21X1_621
*509 OAI21X1_678
*510 OAI21X1_660
*511 _3069__bF_buf7
*512 BUFX4_407
*513 OAI21X1_611
*514 OAI21X1_780
*515 OAI21X1_694
*516 OAI21X1_633
*517 OAI21X1_764
*518 OAI21X1_742
*519 OAI21X1_599
*520 OAI21X1_656
*521 OAI21X1_754
*522 OAI21X1_724
*523 OAI21X1_730
*524 _3069__bF_buf6
*525 BUFX4_408
*526 OAI21X1_688
*527 OAI21X1_684
*528 OAI21X1_710
*529 OAI21X1_716
*530 OAI21X1_746
*531 OAI21X1_623
*532 OAI21X1_768
*533 OAI21X1_674
*534 OAI21X1_718
*535 OAI21X1_702
*536 OAI21X1_758
*537 _3069__bF_buf5
*538 BUFX4_409
*539 OAI21X1_672
*540 OAI21X1_744
*541 OAI21X1_617
*542 OAI21X1_714
*543 OAI21X1_700
*544 OAI21X1_712
*545 OAI21X1_762
*546 OAI21X1_760
*547 OAI21X1_748
*548 OAI21X1_670
*549 OAI21X1_615
*550 _3069__bF_buf4
*551 BUFX4_410
*552 OAI21X1_654
*553 OAI21X1_794
*554 OAI21X1_692
*555 OAI21X1_648
*556 OAI21X1_658
*557 OAI21X1_601
*558 OAI21X1_790
*559 OAI21X1_726
*560 OAI21X1_740
*561 OAI21X1_720
*562 OAI21X1_696
*563 _3069__bF_buf3
*564 BUFX4_411
*565 OAI21X1_635
*566 OAI21X1_631
*567 OAI21X1_778
*568 OAI21X1_680
*569 OAI21X1_784
*570 OAI21X1_668
*571 OAI21X1_625
*572 OAI21X1_686
*573 OAI21X1_734
*574 OAI21X1_698
*575 OAI21X1_637
*576 _2107__bF_buf8
*577 BUFX4_655
*578 OAI21X1_380
*579 OAI21X1_262
*580 OAI21X1_233
*581 OAI21X1_260
*582 OAI21X1_272
*583 OAI21X1_292
*584 OAI21X1_282
*585 OAI21X1_274
*586 OAI21X1_248
*587 OAI21X1_219
*588 OAI21X1_203
*589 _2107__bF_buf7
*590 BUFX4_656
*591 OAI21X1_298
*592 OAI21X1_366
*593 OAI21X1_356
*594 OAI21X1_209
*595 OAI21X1_256
*596 OAI21X1_266
*597 OAI21X1_322
*598 OAI21X1_396
*599 OAI21X1_225
*600 OAI21X1_346
*601 OAI21X1_370
*602 _2107__bF_buf6
*603 BUFX4_657
*604 OAI21X1_264
*605 OAI21X1_306
*606 OAI21X1_250
*607 OAI21X1_235
*608 OAI21X1_215
*609 OAI21X1_294
*610 OAI21X1_239
*611 OAI21X1_241
*612 OAI21X1_237
*613 OAI21X1_336
*614 OAI21X1_288
*615 _2107__bF_buf5
*616 BUFX4_658
*617 OAI21X1_223
*618 OAI21X1_201
*619 OAI21X1_280
*620 OAI21X1_276
*621 OAI21X1_318
*622 OAI21X1_258
*623 OAI21X1_221
*624 OAI21X1_314
*625 OAI21X1_362
*626 OAI21X1_328
*627 OAI21X1_308
*628 _2107__bF_buf4
*629 BUFX4_659
*630 OAI21X1_382
*631 OAI21X1_252
*632 OAI21X1_358
*633 OAI21X1_310
*634 OAI21X1_229
*635 OAI21X1_227
*636 OAI21X1_231
*637 OAI21X1_245
*638 OAI21X1_270
*639 OAI21X1_378
*640 OAI21X1_338
*641 _2107__bF_buf3
*642 BUFX4_660
*643 OAI21X1_334
*644 OAI21X1_211
*645 OAI21X1_268
*646 OAI21X1_394
*647 OAI21X1_254
*648 OAI21X1_388
*649 OAI21X1_344
*650 OAI21X1_296
*651 OAI21X1_384
*652 OAI21X1_243
*653 OAI21X1_286
*654 g_arbiters[4]_u_arbiter_unit_priority_ptr[2]
*655 DFFSR_45
*656 NOR2X1_73
*657 NOR3X1_16
*658 NOR3X1_15
*659 OR2X2_7
*660 AND2X2_11
*661 AOI21X1_269
*662 OAI21X1_1304
*663 NAND2X1_780
*664 NOR2X1_77
*665 INVX2_162
*666 NAND2X1_788
*667 g_arbiters[3]_u_arbiter_unit_priority_ptr[2]
*668 DFFSR_47
*669 NAND2X1_797
*670 INVX2_168
*671 AOI21X1_282
*672 OR2X2_9
*673 NOR3X1_22
*674 OAI21X1_1323
*675 NOR3X1_21
*676 NAND2X1_805
*677 NOR2X1_85
*678 AND2X2_13
*679 NOR2X1_89
*680 g_arbiters[2]_u_arbiter_unit_priority_ptr[2]
*681 DFFSR_49
*682 NOR3X1_27
*683 INVX2_174
*684 OR2X2_11
*685 NAND2X1_814
*686 NOR3X1_28
*687 AOI21X1_295
*688 NAND2X1_822
*689 OAI21X1_1342
*690 NOR2X1_97
*691 NOR2X1_101
*692 AND2X2_15
*693 g_arbiters[1]_u_arbiter_unit_priority_ptr[2]
*694 DFFSR_51
*695 OR2X2_13
*696 NAND2X1_831
*697 AND2X2_17
*698 OAI21X1_1361
*699 NOR2X1_113
*700 INVX2_180
*701 NAND2X1_839
*702 NOR3X1_34
*703 AOI21X1_308
*704 NOR3X1_33
*705 NOR2X1_109
*706 g_arbiters[0]_u_arbiter_unit_priority_ptr[2]
*707 DFFSR_53
*708 NOR2X1_121
*709 NOR3X1_39
*710 NOR2X1_125
*711 AND2X2_19
*712 NOR3X1_40
*713 NAND2X1_848
*714 OAI21X1_1380
*715 INVX2_186
*716 OR2X2_15
*717 NAND2X1_856
*718 AOI21X1_321
*719 clk_hier0_bF_buf8
*720 BUFX4_1
*721 CLKBUF1_10
*722 CLKBUF1_44
*723 CLKBUF1_68
*724 CLKBUF1_59
*725 CLKBUF1_74
*726 CLKBUF1_7
*727 CLKBUF1_19
*728 CLKBUF1_21
*729 CLKBUF1_51
*730 CLKBUF1_15
*731 clk_hier0_bF_buf7
*732 BUFX4_2
*733 CLKBUF1_16
*734 CLKBUF1_54
*735 CLKBUF1_12
*736 CLKBUF1_56
*737 CLKBUF1_78
*738 CLKBUF1_27
*739 CLKBUF1_73
*740 CLKBUF1_83
*741 CLKBUF1_52
*742 CLKBUF1_22
*743 clk_hier0_bF_buf6
*744 BUFX4_3
*745 CLKBUF1_14
*746 CLKBUF1_25
*747 CLKBUF1_3
*748 CLKBUF1_32
*749 CLKBUF1_70
*750 CLKBUF1_61
*751 CLKBUF1_55
*752 CLKBUF1_53
*753 CLKBUF1_18
*754 CLKBUF1_35
*755 clk_hier0_bF_buf5
*756 BUFX4_4
*757 CLKBUF1_34
*758 CLKBUF1_82
*759 CLKBUF1_4
*760 CLKBUF1_13
*761 CLKBUF1_29
*762 CLKBUF1_69
*763 CLKBUF1_17
*764 CLKBUF1_31
*765 CLKBUF1_64
*766 CLKBUF1_36
*767 clk_bF_buf84
*768 CLKBUF1_1
*769 DFFSR_34
*770 DFFPOSX1_5
*771 DFFPOSX1_23
*772 DFFPOSX1_1
*773 DFFPOSX1_69
*774 DFFPOSX1_3
*775 DFFPOSX1_6
*776 DFFPOSX1_609
*777 DFFPOSX1_607
*778 DFFPOSX1_558
*779 clk_bF_buf83
*780 CLKBUF1_2
*781 DFFPOSX1_555
*782 DFFPOSX1_391
*783 DFFPOSX1_550
*784 DFFPOSX1_540
*785 DFFPOSX1_515
*786 DFFPOSX1_532
*787 DFFPOSX1_541
*788 DFFPOSX1_529
*789 DFFPOSX1_512
*790 DFFPOSX1_537
*791 clk_bF_buf82
*792 CLKBUF1_3
*793 DFFPOSX1_702
*794 DFFPOSX1_633
*795 DFFPOSX1_622
*796 DFFPOSX1_675
*797 DFFPOSX1_615
*798 DFFPOSX1_686
*799 DFFPOSX1_666
*800 DFFPOSX1_694
*801 DFFPOSX1_687
*802 DFFPOSX1_646
*803 clk_bF_buf81
*804 CLKBUF1_4
*805 DFFPOSX1_707
*806 DFFPOSX1_190
*807 DFFPOSX1_253
*808 DFFPOSX1_181
*809 DFFPOSX1_682
*810 DFFPOSX1_257
*811 DFFPOSX1_234
*812 DFFPOSX1_261
*813 DFFPOSX1_689
*814 DFFPOSX1_618
*815 clk_bF_buf80
*816 CLKBUF1_5
*817 DFFSR_60
*818 DFFPOSX1_472
*819 DFFPOSX1_474
*820 DFFPOSX1_476
*821 DFFPOSX1_493
*822 DFFPOSX1_468
*823 DFFPOSX1_475
*824 DFFPOSX1_506
*825 DFFSR_56
*826 DFFPOSX1_507
*827 clk_bF_buf79
*828 CLKBUF1_6
*829 DFFPOSX1_411
*830 DFFPOSX1_392
*831 DFFPOSX1_377
*832 DFFSR_25
*833 DFFPOSX1_382
*834 DFFPOSX1_406
*835 DFFPOSX1_395
*836 DFFPOSX1_394
*837 DFFPOSX1_398
*838 DFFPOSX1_375
*839 clk_bF_buf78
*840 CLKBUF1_7
*841 DFFPOSX1_277
*842 DFFPOSX1_292
*843 DFFPOSX1_295
*844 DFFPOSX1_309
*845 DFFPOSX1_330
*846 DFFPOSX1_355
*847 DFFPOSX1_357
*848 DFFPOSX1_285
*849 DFFPOSX1_302
*850 DFFPOSX1_310
*851 clk_bF_buf77
*852 CLKBUF1_8
*853 DFFPOSX1_350
*854 DFFPOSX1_351
*855 DFFPOSX1_349
*856 DFFSR_47
*857 DFFPOSX1_358
*858 DFFPOSX1_279
*859 DFFPOSX1_286
*860 DFFPOSX1_269
*861 DFFPOSX1_293
*862 DFFPOSX1_331
*863 clk_bF_buf76
*864 CLKBUF1_9
*865 DFFPOSX1_461
*866 DFFPOSX1_415
*867 DFFPOSX1_198
*868 DFFPOSX1_199
*869 DFFPOSX1_439
*870 DFFPOSX1_417
*871 DFFPOSX1_174
*872 DFFPOSX1_459
*873 DFFPOSX1_433
*874 DFFPOSX1_437
*875 clk_bF_buf75
*876 CLKBUF1_10
*877 DFFPOSX1_590
*878 DFFPOSX1_595
*879 DFFPOSX1_597
*880 DFFPOSX1_600
*881 DFFPOSX1_578
*882 DFFPOSX1_603
*883 DFFPOSX1_576
*884 DFFPOSX1_570
*885 DFFPOSX1_585
*886 DFFPOSX1_592
*887 clk_bF_buf74
*888 CLKBUF1_11
*889 DFFPOSX1_333
*890 DFFPOSX1_356
*891 DFFPOSX1_328
*892 DFFPOSX1_334
*893 DFFPOSX1_519
*894 DFFPOSX1_548
*895 DFFPOSX1_543
*896 DFFPOSX1_544
*897 DFFPOSX1_557
*898 DFFPOSX1_518
*899 clk_bF_buf73
*900 CLKBUF1_12
*901 DFFPOSX1_92
*902 DFFPOSX1_139
*903 DFFPOSX1_108
*904 DFFPOSX1_84
*905 DFFPOSX1_712
*906 DFFPOSX1_142
*907 DFFPOSX1_95
*908 DFFPOSX1_78
*909 DFFPOSX1_150
*910 DFFPOSX1_79
*911 clk_bF_buf72
*912 CLKBUF1_13
*913 DFFPOSX1_662
*914 DFFPOSX1_650
*915 DFFSR_57
*916 DFFSR_58
*917 DFFPOSX1_645
*918 DFFPOSX1_651
*919 DFFPOSX1_660
*920 DFFPOSX1_621
*921 DFFPOSX1_642
*922 DFFPOSX1_678
*923 clk_bF_buf71
*924 CLKBUF1_14
*925 DFFPOSX1_630
*926 DFFPOSX1_201
*927 DFFPOSX1_616
*928 DFFPOSX1_188
*929 DFFPOSX1_212
*930 DFFPOSX1_260
*931 DFFPOSX1_172
*932 DFFPOSX1_193
*933 DFFPOSX1_240
*934 DFFPOSX1_196
*935 clk_bF_buf70
*936 CLKBUF1_15
*937 DFFPOSX1_577
*938 DFFPOSX1_566
*939 DFFPOSX1_602
*940 DFFPOSX1_591
*941 DFFPOSX1_575
*942 DFFSR_32
*943 DFFSR_30
*944 DFFPOSX1_563
*945 DFFPOSX1_565
*946 DFFSR_29
*947 clk_bF_buf69
*948 CLKBUF1_16
*949 DFFPOSX1_87
*950 DFFPOSX1_93
*951 DFFPOSX1_153
*952 DFFPOSX1_163
*953 DFFPOSX1_88
*954 DFFPOSX1_75
*955 DFFPOSX1_112
*956 DFFPOSX1_160
*957 DFFPOSX1_146
*958 DFFPOSX1_159
*959 clk_bF_buf68
*960 CLKBUF1_17
*961 DFFPOSX1_673
*962 DFFPOSX1_653
*963 DFFPOSX1_629
*964 DFFPOSX1_695
*965 DFFPOSX1_623
*966 DFFPOSX1_652
*967 DFFPOSX1_701
*968 DFFPOSX1_706
*969 DFFPOSX1_658
*970 DFFPOSX1_696
*971 clk_bF_buf67
*972 CLKBUF1_18
*973 DFFPOSX1_457
*974 DFFPOSX1_450
*975 DFFPOSX1_425
*976 DFFPOSX1_432
*977 DFFPOSX1_429
*978 DFFPOSX1_431
*979 DFFPOSX1_438
*980 DFFPOSX1_441
*981 DFFPOSX1_419
*982 DFFPOSX1_421
*983 clk_bF_buf66
*984 CLKBUF1_19
*985 DFFSR_48
*986 DFFSR_62
*987 DFFPOSX1_298
*988 DFFPOSX1_301
*989 DFFPOSX1_327
*990 DFFPOSX1_314
*991 DFFPOSX1_321
*992 DFFPOSX1_322
*993 DFFPOSX1_303
*994 DFFPOSX1_323
*995 clk_bF_buf65
*996 CLKBUF1_20
*997 DFFPOSX1_326
*998 DFFPOSX1_306
*999 DFFPOSX1_282
*1000 DFFPOSX1_300
*1001 DFFPOSX1_289
*1002 DFFPOSX1_291
*1003 DFFPOSX1_312
*1004 DFFPOSX1_320
*1005 DFFPOSX1_288
*1006 DFFPOSX1_276
*1007 _529__bF_buf2
*1008 BUFX4_141
*1009 OAI21X1_547
*1010 OAI21X1_569
*1011 OAI21X1_551
*1012 OAI21X1_559
*1013 OAI21X1_525
*1014 OAI21X1_573
*1015 OAI21X1_503
*1016 OAI21X1_499
*1017 OAI21X1_400
*1018 OAI21X1_404
*1019 _529__bF_buf1
*1020 BUFX4_142
*1021 OAI21X1_535
*1022 OAI21X1_406
*1023 OAI21X1_553
*1024 OAI21X1_595
*1025 OAI21X1_463
*1026 OAI21X1_434
*1027 OAI21X1_444
*1028 OAI21X1_545
*1029 OAI21X1_581
*1030 OAI21X1_587
*1031 _529__bF_buf0
*1032 BUFX4_143
*1033 OAI21X1_461
*1034 OAI21X1_457
*1035 OAI21X1_422
*1036 OAI21X1_563
*1037 OAI21X1_430
*1038 OAI21X1_533
*1039 OAI21X1_493
*1040 OAI21X1_515
*1041 OAI21X1_479
*1042 OAI21X1_475
*1043 _3705__bF_buf2
*1044 BUFX4_150
*1045 OAI21X1_77
*1046 OAI21X1_34
*1047 OAI21X1_131
*1048 OAI21X1_167
*1049 OAI21X1_44
*1050 OAI21X1_163
*1051 OAI21X1_73
*1052 OAI21X1_179
*1053 OAI21X1_173
*1054 OAI21X1_57
*1055 _3705__bF_buf1
*1056 BUFX4_151
*1057 OAI21X1_22
*1058 OAI21X1_24
*1059 OAI21X1_81
*1060 OAI21X1_46
*1061 OAI21X1_189
*1062 OAI21X1_91
*1063 OAI21X1_181
*1064 OAI21X1_38
*1065 OAI21X1_87
*1066 OAI21X1_83
*1067 _3705__bF_buf0
*1068 BUFX4_152
*1069 OAI21X1_117
*1070 OAI21X1_113
*1071 OAI21X1_165
*1072 OAI21X1_111
*1073 OAI21X1_121
*1074 OAI21X1_103
*1075 OAI21X1_139
*1076 OAI21X1_169
*1077 OAI21X1_75
*1078 OAI21X1_71
*1079 _3522__bF_buf2
*1080 BUFX4_324
*1081 OAI21X1_1514
*1082 OAI21X1_1548
*1083 OAI21X1_1403
*1084 OAI21X1_1564
*1085 OAI21X1_1417
*1086 OAI21X1_1466
*1087 OAI21X1_1387
*1088 OAI21X1_1498
*1089 OAI21X1_1401
*1090 OAI21X1_1486
*1091 _3522__bF_buf1
*1092 BUFX4_325
*1093 OAI21X1_1407
*1094 OAI21X1_1552
*1095 OAI21X1_1524
*1096 OAI21X1_1393
*1097 OAI21X1_1574
*1098 OAI21X1_1540
*1099 OAI21X1_1518
*1100 OAI21X1_1554
*1101 OAI21X1_1432
*1102 OAI21X1_1450
*1103 _3522__bF_buf0
*1104 BUFX4_326
*1105 OAI21X1_1484
*1106 OAI21X1_1494
*1107 OAI21X1_1542
*1108 OAI21X1_1532
*1109 OAI21X1_1530
*1110 OAI21X1_1482
*1111 OAI21X1_1464
*1112 OAI21X1_1458
*1113 OAI21X1_1500
*1114 OAI21X1_1474
*1115 _3069__bF_buf2
*1116 BUFX4_412
*1117 OAI21X1_682
*1118 OAI21X1_664
*1119 OAI21X1_662
*1120 OAI21X1_666
*1121 OAI21X1_704
*1122 OAI21X1_752
*1123 OAI21X1_690
*1124 OAI21X1_708
*1125 OAI21X1_706
*1126 OAI21X1_756
*1127 _3069__bF_buf1
*1128 BUFX4_413
*1129 OAI21X1_607
*1130 OAI21X1_627
*1131 OAI21X1_619
*1132 OAI21X1_788
*1133 OAI21X1_605
*1134 OAI21X1_609
*1135 OAI21X1_646
*1136 OAI21X1_629
*1137 OAI21X1_772
*1138 OAI21X1_738
*1139 _3069__bF_buf0
*1140 BUFX4_414
*1141 OAI21X1_728
*1142 OAI21X1_722
*1143 OAI21X1_770
*1144 OAI21X1_639
*1145 OAI21X1_652
*1146 OAI21X1_641
*1147 OAI21X1_650
*1148 OAI21X1_776
*1149 OAI21X1_613
*1150 OAI21X1_792
*1151 _2107__bF_buf2
*1152 BUFX4_661
*1153 OAI21X1_302
*1154 OAI21X1_354
*1155 OAI21X1_342
*1156 OAI21X1_207
*1157 OAI21X1_392
*1158 OAI21X1_350
*1159 OAI21X1_352
*1160 OAI21X1_205
*1161 OAI21X1_386
*1162 OAI21X1_304
*1163 _2107__bF_buf1
*1164 BUFX4_662
*1165 OAI21X1_326
*1166 OAI21X1_332
*1167 OAI21X1_324
*1168 OAI21X1_372
*1169 OAI21X1_312
*1170 OAI21X1_374
*1171 OAI21X1_213
*1172 OAI21X1_360
*1173 OAI21X1_284
*1174 OAI21X1_290
*1175 _2107__bF_buf0
*1176 BUFX4_663
*1177 OAI21X1_217
*1178 OAI21X1_330
*1179 OAI21X1_340
*1180 OAI21X1_390
*1181 OAI21X1_368
*1182 OAI21X1_320
*1183 OAI21X1_300
*1184 OAI21X1_348
*1185 OAI21X1_364
*1186 OAI21X1_316
*1187 g_arbiters[4]_u_arbiter_unit_priority_ptr[0]
*1188 DFFSR_46
*1189 AOI21X1_267
*1190 NOR2X1_79
*1191 OAI21X1_1303
*1192 NOR2X1_77
*1193 NAND2X1_780
*1194 AND2X2_11
*1195 INVX4_1
*1196 NAND3X1_429
*1197 OR2X2_7
*1198 AOI21X1_268
*1199 g_arbiters[4]_u_arbiter_unit_priority_ptr[1]
*1200 DFFSR_61
*1201 AOI22X1_334
*1202 AOI22X1_339
*1203 NOR2X1_80
*1204 OAI21X1_1299
*1205 NAND3X1_429
*1206 INVX2_163
*1207 OAI21X1_1303
*1208 AOI21X1_267
*1209 OAI21X1_1289
*1210 AOI21X1_266
*1211 g_arbiters[3]_u_arbiter_unit_priority_ptr[0]
*1212 DFFSR_48
*1213 NAND3X1_447
*1214 AOI21X1_280
*1215 OAI21X1_1322
*1216 NOR2X1_91
*1217 OR2X2_9
*1218 AOI21X1_281
*1219 AND2X2_13
*1220 NOR2X1_89
*1221 NAND2X1_797
*1222 INVX4_2
*1223 g_arbiters[3]_u_arbiter_unit_priority_ptr[1]
*1224 DFFSR_62
*1225 NAND3X1_447
*1226 AOI21X1_280
*1227 OAI21X1_1308
*1228 NOR2X1_92
*1229 OAI21X1_1318
*1230 AOI21X1_279
*1231 AOI22X1_346
*1232 AOI22X1_351
*1233 OAI21X1_1322
*1234 INVX2_169
*1235 g_arbiters[2]_u_arbiter_unit_priority_ptr[0]
*1236 DFFSR_50
*1237 AND2X2_15
*1238 NOR2X1_101
*1239 INVX4_3
*1240 NAND3X1_465
*1241 OR2X2_11
*1242 NAND2X1_814
*1243 AOI21X1_294
*1244 AOI21X1_293
*1245 NOR2X1_103
*1246 OAI21X1_1341
*1247 g_arbiters[2]_u_arbiter_unit_priority_ptr[1]
*1248 DFFSR_63
*1249 AOI22X1_358
*1250 AOI21X1_292
*1251 OAI21X1_1337
*1252 AOI22X1_363
*1253 NAND3X1_465
*1254 OAI21X1_1341
*1255 OAI21X1_1327
*1256 NOR2X1_104
*1257 AOI21X1_293
*1258 INVX2_175
*1259 g_arbiters[1]_u_arbiter_unit_priority_ptr[0]
*1260 DFFSR_52
*1261 NAND3X1_483
*1262 NOR2X1_113
*1263 OAI21X1_1360
*1264 AND2X2_17
*1265 NAND2X1_831
*1266 OR2X2_13
*1267 AOI21X1_306
*1268 AOI21X1_307
*1269 NOR2X1_115
*1270 INVX4_4
*1271 g_arbiters[1]_u_arbiter_unit_priority_ptr[1]
*1272 DFFSR_64
*1273 AOI22X1_370
*1274 OAI21X1_1356
*1275 OAI21X1_1360
*1276 AOI22X1_375
*1277 NOR2X1_116
*1278 AOI21X1_305
*1279 AOI21X1_306
*1280 INVX2_181
*1281 NAND3X1_483
*1282 OAI21X1_1346
*1283 g_arbiters[0]_u_arbiter_unit_priority_ptr[0]
*1284 DFFSR_54
*1285 NAND3X1_501
*1286 NOR2X1_125
*1287 INVX4_5
*1288 AND2X2_19
*1289 AOI21X1_319
*1290 NAND2X1_848
*1291 AOI21X1_320
*1292 OR2X2_15
*1293 NOR2X1_127
*1294 OAI21X1_1379
*1295 g_arbiters[0]_u_arbiter_unit_priority_ptr[1]
*1296 DFFSR_65
*1297 NAND3X1_501
*1298 AOI22X1_382
*1299 AOI21X1_318
*1300 AOI21X1_319
*1301 OAI21X1_1379
*1302 AOI22X1_387
*1303 NOR2X1_128
*1304 OAI21X1_1365
*1305 INVX2_187
*1306 OAI21X1_1375
*1307 clk
*1308 BUFX4_3
*1309 BUFX4_4
*1310 BUFX4_2
*1311 BUFX4_9
*1312 BUFX4_7
*1313 BUFX4_5
*1314 BUFX4_8
*1315 BUFX4_6
*1316 BUFX4_1
*1317 clk_hier0_bF_buf4
*1318 BUFX4_5
*1319 CLKBUF1_63
*1320 CLKBUF1_9
*1321 CLKBUF1_67
*1322 CLKBUF1_23
*1323 CLKBUF1_28
*1324 CLKBUF1_45
*1325 CLKBUF1_41
*1326 CLKBUF1_84
*1327 CLKBUF1_5
*1328 clk_hier0_bF_buf3
*1329 BUFX4_6
*1330 CLKBUF1_46
*1331 CLKBUF1_66
*1332 CLKBUF1_58
*1333 CLKBUF1_33
*1334 CLKBUF1_80
*1335 CLKBUF1_2
*1336 CLKBUF1_62
*1337 CLKBUF1_6
*1338 CLKBUF1_75
*1339 clk_hier0_bF_buf2
*1340 BUFX4_7
*1341 CLKBUF1_50
*1342 CLKBUF1_38
*1343 CLKBUF1_71
*1344 CLKBUF1_60
*1345 CLKBUF1_76
*1346 CLKBUF1_77
*1347 CLKBUF1_85
*1348 CLKBUF1_37
*1349 CLKBUF1_26
*1350 clk_hier0_bF_buf1
*1351 BUFX4_8
*1352 CLKBUF1_72
*1353 CLKBUF1_42
*1354 CLKBUF1_79
*1355 CLKBUF1_20
*1356 CLKBUF1_11
*1357 CLKBUF1_24
*1358 CLKBUF1_43
*1359 CLKBUF1_39
*1360 CLKBUF1_8
*1361 clk_hier0_bF_buf0
*1362 BUFX4_9
*1363 CLKBUF1_30
*1364 CLKBUF1_57
*1365 CLKBUF1_40
*1366 CLKBUF1_81
*1367 CLKBUF1_49
*1368 CLKBUF1_65
*1369 CLKBUF1_1
*1370 CLKBUF1_48
*1371 CLKBUF1_47
*1372 clk_bF_buf64
*1373 CLKBUF1_21
*1374 DFFPOSX1_281
*1375 DFFPOSX1_274
*1376 DFFPOSX1_345
*1377 DFFPOSX1_318
*1378 DFFPOSX1_305
*1379 DFFPOSX1_325
*1380 DFFPOSX1_283
*1381 DFFPOSX1_307
*1382 DFFPOSX1_299
*1383 clk_bF_buf63
*1384 CLKBUF1_22
*1385 DFFPOSX1_132
*1386 DFFPOSX1_143
*1387 DFFPOSX1_136
*1388 DFFPOSX1_72
*1389 DFFPOSX1_145
*1390 DFFPOSX1_124
*1391 DFFPOSX1_152
*1392 DFFPOSX1_125
*1393 DFFPOSX1_144
*1394 clk_bF_buf62
*1395 CLKBUF1_23
*1396 DFFPOSX1_564
*1397 DFFPOSX1_435
*1398 DFFPOSX1_454
*1399 DFFPOSX1_588
*1400 DFFPOSX1_451
*1401 DFFPOSX1_560
*1402 DFFPOSX1_573
*1403 DFFPOSX1_598
*1404 DFFSR_43
*1405 clk_bF_buf61
*1406 CLKBUF1_24
*1407 DFFPOSX1_526
*1408 DFFPOSX1_547
*1409 DFFPOSX1_539
*1410 DFFSR_40
*1411 DFFPOSX1_523
*1412 DFFPOSX1_552
*1413 DFFPOSX1_516
*1414 DFFSR_37
*1415 DFFPOSX1_522
*1416 clk_bF_buf60
*1417 CLKBUF1_25
*1418 DFFPOSX1_221
*1419 DFFPOSX1_248
*1420 DFFPOSX1_177
*1421 DFFPOSX1_243
*1422 DFFPOSX1_233
*1423 DFFPOSX1_250
*1424 DFFPOSX1_231
*1425 DFFPOSX1_170
*1426 DFFPOSX1_713
*1427 clk_bF_buf59
*1428 CLKBUF1_26
*1429 DFFPOSX1_61
*1430 DFFPOSX1_13
*1431 DFFPOSX1_414
*1432 DFFPOSX1_42
*1433 DFFPOSX1_265
*1434 DFFPOSX1_510
*1435 DFFPOSX1_53
*1436 DFFPOSX1_33
*1437 DFFPOSX1_11
*1438 clk_bF_buf58
*1439 CLKBUF1_27
*1440 DFFSR_8
*1441 DFFSR_10
*1442 DFFSR_7
*1443 DFFSR_9
*1444 DFFPOSX1_118
*1445 DFFSR_45
*1446 DFFSR_5
*1447 DFFSR_61
*1448 DFFSR_6
*1449 clk_bF_buf57
*1450 CLKBUF1_28
*1451 DFFPOSX1_232
*1452 DFFPOSX1_179
*1453 DFFPOSX1_223
*1454 DFFPOSX1_218
*1455 DFFPOSX1_203
*1456 DFFPOSX1_251
*1457 DFFPOSX1_175
*1458 DFFPOSX1_219
*1459 DFFPOSX1_242
*1460 clk_bF_buf56
*1461 CLKBUF1_29
*1462 DFFPOSX1_676
*1463 DFFPOSX1_698
*1464 DFFPOSX1_703
*1465 DFFPOSX1_636
*1466 DFFPOSX1_671
*1467 DFFPOSX1_720
*1468 DFFPOSX1_670
*1469 DFFPOSX1_626
*1470 DFFPOSX1_631
*1471 clk_bF_buf55
*1472 CLKBUF1_30
*1473 DFFSR_2
*1474 DFFSR_3
*1475 DFFPOSX1_494
*1476 DFFPOSX1_509
*1477 DFFSR_18
*1478 DFFPOSX1_10
*1479 DFFPOSX1_490
*1480 DFFSR_1
*1481 DFFPOSX1_612
*1482 clk_bF_buf54
*1483 CLKBUF1_31
*1484 DFFPOSX1_620
*1485 DFFPOSX1_691
*1486 DFFPOSX1_644
*1487 DFFPOSX1_638
*1488 DFFPOSX1_664
*1489 DFFPOSX1_667
*1490 DFFPOSX1_654
*1491 DFFPOSX1_685
*1492 DFFPOSX1_614
*1493 clk_bF_buf53
*1494 CLKBUF1_32
*1495 DFFPOSX1_249
*1496 DFFPOSX1_222
*1497 DFFPOSX1_236
*1498 DFFPOSX1_194
*1499 DFFPOSX1_197
*1500 DFFPOSX1_173
*1501 DFFPOSX1_202
*1502 DFFPOSX1_178
*1503 DFFPOSX1_238
*1504 clk_bF_buf52
*1505 CLKBUF1_33
*1506 DFFPOSX1_385
*1507 DFFPOSX1_410
*1508 DFFPOSX1_387
*1509 DFFPOSX1_367
*1510 DFFPOSX1_409
*1511 DFFPOSX1_384
*1512 DFFPOSX1_390
*1513 DFFPOSX1_412
*1514 DFFPOSX1_402
*1515 clk_bF_buf51
*1516 CLKBUF1_34
*1517 DFFPOSX1_237
*1518 DFFPOSX1_262
*1519 DFFPOSX1_214
*1520 DFFPOSX1_217
*1521 DFFPOSX1_189
*1522 DFFPOSX1_637
*1523 DFFPOSX1_625
*1524 DFFPOSX1_669
*1525 DFFPOSX1_213
*1526 clk_bF_buf50
*1527 CLKBUF1_35
*1528 DFFPOSX1_226
*1529 DFFPOSX1_434
*1530 DFFPOSX1_716
*1531 DFFPOSX1_452
*1532 DFFPOSX1_458
*1533 DFFPOSX1_228
*1534 DFFPOSX1_241
*1535 DFFPOSX1_245
*1536 DFFPOSX1_427
*1537 clk_bF_buf49
*1538 CLKBUF1_36
*1539 DFFPOSX1_641
*1540 DFFPOSX1_628
*1541 DFFPOSX1_624
*1542 DFFPOSX1_672
*1543 DFFPOSX1_634
*1544 DFFPOSX1_619
*1545 DFFPOSX1_700
*1546 DFFPOSX1_674
*1547 DFFPOSX1_692
*1548 clk_bF_buf48
*1549 CLKBUF1_37
*1550 DFFPOSX1_59
*1551 DFFPOSX1_55
*1552 DFFPOSX1_608
*1553 DFFPOSX1_31
*1554 DFFPOSX1_68
*1555 DFFPOSX1_7
*1556 DFFPOSX1_64
*1557 DFFPOSX1_50
*1558 DFFPOSX1_18
*1559 clk_bF_buf47
*1560 CLKBUF1_38
*1561 DFFPOSX1_71
*1562 DFFPOSX1_46
*1563 DFFPOSX1_708
*1564 DFFPOSX1_462
*1565 DFFPOSX1_39
*1566 DFFPOSX1_51
*1567 DFFPOSX1_12
*1568 DFFPOSX1_60
*1569 DFFPOSX1_34
*1570 clk_bF_buf46
*1571 CLKBUF1_39
*1572 DFFPOSX1_340
*1573 DFFPOSX1_344
*1574 DFFPOSX1_339
*1575 DFFPOSX1_362
*1576 DFFPOSX1_348
*1577 DFFPOSX1_337
*1578 DFFSR_20
*1579 DFFSR_22
*1580 DFFSR_21
*1581 clk_bF_buf45
*1582 CLKBUF1_40
*1583 DFFPOSX1_465
*1584 DFFPOSX1_478
*1585 DFFPOSX1_486
*1586 DFFPOSX1_502
*1587 DFFPOSX1_477
*1588 DFFPOSX1_717
*1589 DFFPOSX1_463
*1590 DFFPOSX1_483
*1591 DFFPOSX1_464
*1592 clk_bF_buf44
*1593 CLKBUF1_41
*1594 DFFPOSX1_230
*1595 DFFPOSX1_186
*1596 DFFPOSX1_210
*1597 DFFPOSX1_258
*1598 DFFPOSX1_229
*1599 DFFPOSX1_252
*1600 DFFPOSX1_204
*1601 DFFPOSX1_224
*1602 DFFPOSX1_215
*1603 clk_bF_buf43
*1604 CLKBUF1_42
*1605 DFFPOSX1_556
*1606 DFFPOSX1_545
*1607 DFFPOSX1_514
*1608 DFFPOSX1_534
*1609 DFFPOSX1_517
*1610 DFFPOSX1_542
*1611 DFFPOSX1_531
*1612 DFFPOSX1_554
*1613 DFFPOSX1_520
*1614 clk_bF_buf42
*1615 CLKBUF1_43
*1616 DFFSR_23
*1617 DFFSR_24
*1618 DFFSR_19
*1619 DFFPOSX1_538
*1620 DFFPOSX1_294
*1621 DFFPOSX1_347
*1622 DFFPOSX1_329
*1623 DFFPOSX1_270
*1624 DFFPOSX1_533
*1625 clk_bF_buf41
*1626 CLKBUF1_44
*1627 DFFPOSX1_584
*1628 DFFPOSX1_567
*1629 DFFPOSX1_568
*1630 DFFPOSX1_572
*1631 DFFPOSX1_582
*1632 DFFPOSX1_601
*1633 DFFPOSX1_559
*1634 DFFPOSX1_719
*1635 DFFPOSX1_581
*1636 clk_bF_buf40
*1637 CLKBUF1_45
*1638 DFFPOSX1_255
*1639 DFFPOSX1_227
*1640 DFFPOSX1_209
*1641 DFFPOSX1_185
*1642 DFFPOSX1_192
*1643 DFFSR_59
*1644 DFFPOSX1_264
*1645 DFFPOSX1_239
*1646 DFFPOSX1_216
*1647 clk_bF_buf39
*1648 CLKBUF1_46
*1649 DFFPOSX1_408
*1650 DFFSR_64
*1651 DFFSR_46
*1652 DFFSR_51
*1653 DFFPOSX1_383
*1654 DFFPOSX1_400
*1655 DFFPOSX1_399
*1656 DFFSR_52
*1657 DFFPOSX1_369
*1658 clk_bF_buf38
*1659 CLKBUF1_47
*1660 DFFPOSX1_40
*1661 DFFPOSX1_167
*1662 DFFPOSX1_28
*1663 DFFPOSX1_19
*1664 DFFPOSX1_35
*1665 DFFPOSX1_62
*1666 DFFPOSX1_366
*1667 DFFPOSX1_14
*1668 DFFPOSX1_67
*1669 clk_bF_buf37
*1670 CLKBUF1_48
*1671 DFFPOSX1_30
*1672 DFFPOSX1_65
*1673 DFFPOSX1_17
*1674 DFFPOSX1_26
*1675 DFFPOSX1_610
*1676 DFFPOSX1_8
*1677 DFFPOSX1_54
*1678 DFFPOSX1_56
*1679 DFFPOSX1_58
*1680 clk_bF_buf36
*1681 CLKBUF1_49
*1682 DFFPOSX1_467
*1683 DFFPOSX1_491
*1684 DFFPOSX1_498
*1685 DFFPOSX1_481
*1686 DFFSR_55
*1687 DFFPOSX1_492
*1688 DFFPOSX1_471
*1689 DFFPOSX1_479
*1690 DFFPOSX1_504
*1691 clk_bF_buf35
*1692 CLKBUF1_50
*1693 DFFPOSX1_130
*1694 DFFPOSX1_158
*1695 DFFPOSX1_86
*1696 DFFPOSX1_147
*1697 DFFPOSX1_110
*1698 DFFPOSX1_100
*1699 DFFPOSX1_90
*1700 DFFPOSX1_76
*1701 DFFSR_4